ZINC000242548690


 61 68  0  0  0  0  0  0  0  0999 V2000
   33.8058   -3.4492   19.7362 C   0  0  0  0  0  0  0  0  0  0  0  0
   32.9127   -2.4740   19.2043 O   0  0  0  0  0  0  0  0  0  0  0  0
   34.0125   -4.6271   18.7939 C   0  0  0  0  0  0  0  0  0  0  0  0
   31.6434   -2.9480   18.7319 C   0  0  0  0  0  0  0  0  0  0  0  0
   32.6761   -5.2254   18.3834 C   0  0  0  0  0  0  0  0  0  0  0  0
   31.7670   -4.1494   17.7761 C   0  0  0  0  0  0  0  0  0  0  0  0
   30.6764   -3.2114   19.8828 C   0  0  0  0  0  0  0  0  0  0  0  0
   32.9073   -6.2639   17.4225 O   0  0  0  0  0  0  0  0  0  0  0  0
   32.9627   -5.8091   16.5578 H   0  0  0  0  0  0  0  0  0  0  0  0
   33.3749   -3.9380   21.0047 O   0  0  0  0  0  0  0  0  0  0  0  0
   33.5038    0.9771   28.4623 C   0  0  0  0  0  0  0  0  0  0  0  0
   32.4958    0.5616   27.3295 C   0  0  0  0  0  0  0  0  0  0  0  0
   34.5800   -0.1342   28.4342 C   0  0  0  0  0  0  0  0  0  0  0  0
   32.5353   -0.9933   27.3722 C   0  0  0  0  0  0  0  0  0  0  0  0
   33.0574    1.0556   25.9610 C   0  0  0  0  0  0  0  0  0  0  0  0
   31.0755    1.1245   27.5533 C   0  0  0  0  0  0  0  0  0  0  0  0
   34.0167   -1.3122   27.6313 C   0  0  0  0  0  0  0  0  0  0  0  0
   31.8251   -1.4794   28.5203 O   0  0  0  0  0  0  0  0  0  0  0  0
   31.9349   -1.6792   26.1107 C   0  0  0  0  0  0  0  0  0  0  0  0
   32.9619    2.4774   25.8614 O   0  0  0  0  0  0  0  0  0  0  0  0
   32.3743    0.4120   24.7516 C   0  0  0  0  0  0  0  0  0  0  0  0
   32.4962   -1.1226   24.7720 C   0  0  0  0  0  0  0  0  0  0  0  0
   32.0702   -3.2122   26.1840 C   0  0  0  0  0  0  0  0  0  0  0  0
   31.8644   -1.8292   23.5091 C   0  0  0  0  0  0  0  0  0  0  0  0
   31.4693   -3.9088   24.9683 C   0  0  0  0  0  0  0  0  0  0  0  0
   32.0237   -3.3799   23.6368 C   0  0  0  0  0  0  0  0  0  0  0  0
   32.5370   -1.3752   22.1803 C   0  0  0  0  0  0  0  0  0  0  0  0
   30.3596   -1.4797   23.3676 C   0  0  0  0  0  0  0  0  0  0  0  0
   33.4862   -3.8480   23.4413 C   0  0  0  0  0  0  0  0  0  0  0  0
   33.9793   -1.8523   22.0143 C   0  0  0  0  0  0  0  0  0  0  0  0
   34.0867   -3.3753   22.1128 C   0  0  0  0  0  0  0  0  0  0  0  0
   30.8699   -1.4316   28.3442 H   0  0  0  0  0  0  0  0  0  0  0  0
   32.0740    2.7093   25.5387 H   0  0  0  0  0  0  0  0  0  0  0  0
   30.6858    1.5787   32.3860 O   0  0  0  0  0  0  0  0  0  0  0  0
   31.6781    1.4816   31.6884 C   0  0  0  0  0  0  0  0  0  0  0  0
   32.9644    1.5804   32.1166 O   0  0  0  0  0  0  0  0  0  0  0  0
   31.6701    1.2382   30.2487 C   0  0  0  0  0  0  0  0  0  0  0  0
   33.8413    1.4108   31.0041 C   0  0  0  0  0  0  0  0  0  0  0  0
   32.9397    1.2144   29.8424 C   0  0  0  0  0  0  0  0  0  0  0  0
   32.3926   -3.7421   16.5368 O   0  0  0  0  0  0  0  0  0  0  0  0
   33.7559   -3.3509   16.7003 C   0  0  0  0  0  0  0  0  0  0  0  0
   33.8453   -1.9315   16.6024 O   0  0  0  0  0  0  0  0  0  0  0  0
   34.5479   -3.9874   15.5652 C   0  0  0  0  0  0  0  0  0  0  0  0
   35.1869   -1.4670   16.7889 C   0  0  0  0  0  0  0  0  0  0  0  0
   36.0000   -3.5365   15.5998 C   0  0  0  0  0  0  0  0  0  0  0  0
   36.1166   -1.9999   15.6780 C   0  0  0  0  0  0  0  0  0  0  0  0
   35.1397    0.0586   16.7941 C   0  0  0  0  0  0  0  0  0  0  0  0
   36.6452   -4.1381   16.7269 O   0  0  0  0  0  0  0  0  0  0  0  0
   37.5800   -3.8431   16.6671 H   0  0  0  0  0  0  0  0  0  0  0  0
   37.4505   -1.5488   15.9587 O   0  0  0  0  0  0  0  0  0  0  0  0
   38.0403   -2.1178   17.1243 C   0  0  0  0  0  0  0  0  0  0  0  0
   37.4652   -1.4876   18.2717 O   0  0  0  0  0  0  0  0  0  0  0  0
   39.5354   -1.8165   17.0717 C   0  0  0  0  0  0  0  0  0  0  0  0
   37.9909   -2.0191   19.4938 C   0  0  0  0  0  0  0  0  0  0  0  0
   40.2185   -2.2779   18.3477 C   0  0  0  0  0  0  0  0  0  0  0  0
   39.5013   -1.7364   19.5934 C   0  0  0  0  0  0  0  0  0  0  0  0
   37.2181   -1.3703   20.6373 C   0  0  0  0  0  0  0  0  0  0  0  0
   40.2192   -3.7105   18.3878 O   0  0  0  0  0  0  0  0  0  0  0  0
   40.0799   -2.3637   20.7430 O   0  0  0  0  0  0  0  0  0  0  0  0
   40.5255   -3.9349   19.2915 H   0  0  0  0  0  0  0  0  0  0  0  0
   39.7945   -1.8605   21.5267 H   0  0  0  0  0  0  0  0  0  0  0  0
 34 35  2  0  0  0
 35 36  1  0  0  0
 35 37  1  0  0  0
 36 38  1  0  0  0
 37 39  2  0  0  0
 38 39  1  0  0  0
 39 11  1  0  0  0
 11 12  1  0  0  0
 11 13  1  0  0  0
 12 14  1  0  0  0
 12 15  1  0  0  0
 12 16  1  0  0  0
 13 17  1  0  0  0
 14 18  1  0  0  0
 14 19  1  0  0  0
 14 17  1  0  0  0
 15 20  1  0  0  0
 15 21  1  0  0  0
 18 32  1  0  0  0
 19 22  1  0  0  0
 19 23  1  0  0  0
 20 33  1  0  0  0
 21 22  1  0  0  0
 22 24  1  0  0  0
 23 25  1  0  0  0
 24 26  1  0  0  0
 24 27  1  0  0  0
 24 28  1  0  0  0
 25 26  1  0  0  0
 26 29  1  0  0  0
 27 30  1  0  0  0
 29 31  1  0  0  0
 30 31  1  0  0  0
 31 10  1  0  0  0
 10  1  1  0  0  0
  1  2  1  0  0  0
  1  3  1  0  0  0
  2  4  1  0  0  0
  3  5  1  0  0  0
  4  6  1  0  0  0
  4  7  1  0  0  0
  5  8  1  0  0  0
  5  6  1  0  0  0
  6 40  1  0  0  0
  8  9  1  0  0  0
 40 41  1  0  0  0
 41 42  1  0  0  0
 41 43  1  0  0  0
 42 44  1  0  0  0
 43 45  1  0  0  0
 44 46  1  0  0  0
 44 47  1  0  0  0
 45 48  1  0  0  0
 45 46  1  0  0  0
 46 50  1  0  0  0
 48 49  1  0  0  0
 50 51  1  0  0  0
 51 52  1  0  0  0
 51 53  1  0  0  0
 52 54  1  0  0  0
 53 55  1  0  0  0
 54 56  1  0  0  0
 54 57  1  0  0  0
 55 58  1  0  0  0
 55 56  1  0  0  0
 56 59  1  0  0  0
 58 60  1  0  0  0
 59 61  1  0  0  0
M  END
> <minimizedAffinity>
-4.27888

$$$$
ZINC000003831405


 25 28  0  0  0  0  0  0  0  0999 V2000
   35.1559   -1.0073   17.1585 C   0  0  0  0  0  0  0  0  0  0  0  0
   35.4956   -0.0286   16.1626 O   0  0  0  0  0  0  0  0  0  0  0  0
   35.2134   -0.3680   15.2956 H   0  0  0  0  0  0  0  0  0  0  0  0
   31.4274   -3.1790   18.1364 C   0  0  0  0  0  0  0  0  0  0  0  0
   32.6044   -2.4930   17.8224 C   0  0  0  0  0  0  0  0  0  0  0  0
   31.1139   -4.3307   17.4312 C   0  0  0  0  0  0  0  0  0  0  0  0
   33.4910   -2.9386   16.8086 C   0  0  0  0  0  0  0  0  0  0  0  0
   31.9719   -4.7778   16.4222 C   0  0  0  0  0  0  0  0  0  0  0  0
   33.1429   -4.1093   16.0956 C   0  0  0  0  0  0  0  0  0  0  0  0
   34.7067   -2.2815   16.4502 C   0  0  0  0  0  0  0  0  0  0  0  0
   33.8880   -4.6124   15.1020 N   0  0  0  0  0  0  0  0  0  0  0  0
   35.4583   -2.8140   15.3965 C   0  0  0  0  0  0  0  0  0  0  0  0
   35.0202   -3.9647   14.7722 C   0  0  0  0  0  0  0  0  0  0  0  0
   30.6863   -2.6188   19.1384 O   0  0  0  0  0  0  0  0  0  0  0  0
   29.4343   -3.2274   19.4304 C   0  0  0  0  0  0  0  0  0  0  0  0
   36.3521   -1.1033   18.1699 C   0  0  0  0  0  0  0  0  0  0  0  0
   36.9392   -2.4684   18.3417 N   0  0  0  0  0  0  0  0  0  0  0  0
   35.9597   -0.5080   19.5517 C   0  0  0  0  0  0  0  0  0  0  0  0
   36.0022   -3.3303   19.1054 C   0  0  0  0  0  0  0  0  0  0  0  0
   38.1970   -2.3448   19.1145 C   0  0  0  0  0  0  0  0  0  0  0  0
   36.4626   -1.4295   20.6795 C   0  0  0  0  0  0  0  0  0  0  0  0
   35.7909   -2.8199   20.5549 C   0  0  0  0  0  0  0  0  0  0  0  0
   37.9724   -1.6316   20.4573 C   0  0  0  0  0  0  0  0  0  0  0  0
   34.3303   -2.8008   20.9403 C   0  0  0  0  0  0  0  0  0  0  0  0
   33.5872   -3.9023   21.1090 C   0  0  0  0  0  0  0  0  0  0  0  0
 14  4  1  0  0  0
 14 15  1  0  0  0
  4  5  2  0  0  0
  4  6  1  0  0  0
  5  7  1  0  0  0
  6  8  2  0  0  0
  7  9  1  0  0  0
  7 10  2  0  0  0
  8  9  1  0  0  0
  9 11  2  0  0  0
 10 12  1  0  0  0
 10  1  1  0  0  0
 11 13  1  0  0  0
 12 13  2  0  0  0
  1  2  1  0  0  0
  1 16  1  0  0  0
  2  3  1  0  0  0
 16 17  1  0  0  0
 16 18  1  0  0  0
 17 19  1  0  0  0
 17 20  1  0  0  0
 18 21  1  0  0  0
 19 22  1  0  0  0
 20 23  1  0  0  0
 21 22  1  0  0  0
 21 23  1  0  0  0
 22 24  1  0  0  0
 24 25  2  0  0  0
M  END
> <minimizedAffinity>
-7.06739

$$$$
ZINC000003831404


 25 28  0  0  0  0  0  0  0  0999 V2000
   30.8244   -0.9740   27.0350 C   0  0  0  0  0  0  0  0  0  0  0  0
   31.1446   -1.1460   25.6448 O   0  0  0  0  0  0  0  0  0  0  0  0
   30.3186   -1.0888   25.1340 H   0  0  0  0  0  0  0  0  0  0  0  0
   27.5440   -3.6439   28.3331 C   0  0  0  0  0  0  0  0  0  0  0  0
   28.5778   -2.7987   27.9192 C   0  0  0  0  0  0  0  0  0  0  0  0
   26.2531   -3.1421   28.3991 C   0  0  0  0  0  0  0  0  0  0  0  0
   28.3504   -1.4432   27.5675 C   0  0  0  0  0  0  0  0  0  0  0  0
   26.0105   -1.8108   28.0468 C   0  0  0  0  0  0  0  0  0  0  0  0
   27.0232   -0.9581   27.6319 C   0  0  0  0  0  0  0  0  0  0  0  0
   29.3674   -0.5354   27.1433 C   0  0  0  0  0  0  0  0  0  0  0  0
   26.6825    0.2954   27.3022 N   0  0  0  0  0  0  0  0  0  0  0  0
   28.9851    0.7628   26.7852 C   0  0  0  0  0  0  0  0  0  0  0  0
   27.6570    1.1262   26.8888 C   0  0  0  0  0  0  0  0  0  0  0  0
   27.9314   -4.9189   28.6372 O   0  0  0  0  0  0  0  0  0  0  0  0
   27.5235   -5.4313   29.8999 C   0  0  0  0  0  0  0  0  0  0  0  0
   31.9246   -0.0557   27.6750 C   0  0  0  0  0  0  0  0  0  0  0  0
   31.4177    0.9720   28.6362 N   0  0  0  0  0  0  0  0  0  0  0  0
   33.0446   -0.9070   28.3355 C   0  0  0  0  0  0  0  0  0  0  0  0
   32.5390    1.8903   28.9633 C   0  0  0  0  0  0  0  0  0  0  0  0
   30.9554    0.3301   29.8855 C   0  0  0  0  0  0  0  0  0  0  0  0
   33.3656   -0.3533   29.7361 C   0  0  0  0  0  0  0  0  0  0  0  0
   33.7124    1.1537   29.6604 C   0  0  0  0  0  0  0  0  0  0  0  0
   32.0710   -0.4825   30.5595 C   0  0  0  0  0  0  0  0  0  0  0  0
   35.0329    1.4115   28.9728 C   0  0  0  0  0  0  0  0  0  0  0  0
   35.1748    2.1886   27.8912 C   0  0  0  0  0  0  0  0  0  0  0  0
 14  4  1  0  0  0
 14 15  1  0  0  0
  4  5  2  0  0  0
  4  6  1  0  0  0
  5  7  1  0  0  0
  6  8  2  0  0  0
  7  9  1  0  0  0
  7 10  2  0  0  0
  8  9  1  0  0  0
  9 11  2  0  0  0
 10 12  1  0  0  0
 10  1  1  0  0  0
 11 13  1  0  0  0
 12 13  2  0  0  0
  1  2  1  0  0  0
  1 16  1  0  0  0
  2  3  1  0  0  0
 16 17  1  0  0  0
 16 18  1  0  0  0
 17 19  1  0  0  0
 17 20  1  0  0  0
 18 21  1  0  0  0
 19 22  1  0  0  0
 20 23  1  0  0  0
 21 22  1  0  0  0
 21 23  1  0  0  0
 22 24  1  0  0  0
 24 25  2  0  0  0
M  END
> <minimizedAffinity>
-7.47592

$$$$
ZINC000000389747


 26 30  0  0  0  0  0  0  0  0999 V2000
   34.8489   -0.6580   28.6720 O   0  0  0  0  0  0  0  0  0  0  0  0
   33.6577   -0.3548   28.7778 C   0  0  0  0  0  0  0  0  0  0  0  0
   32.5294   -1.4029   28.7227 C   0  0  0  0  0  0  0  0  0  0  0  0
   33.2736    1.0769   29.0727 C   0  0  0  0  0  0  0  0  0  0  0  0
   32.9170   -2.4802   27.8105 O   0  0  0  0  0  0  0  0  0  0  0  0
   31.1889   -0.8552   28.2138 C   0  0  0  0  0  0  0  0  0  0  0  0
   32.1084    1.5225   28.1962 C   0  0  0  0  0  0  0  0  0  0  0  0
   32.3799   -2.0898   26.6060 C   0  0  0  0  0  0  0  0  0  0  0  0
   31.4239   -1.1071   26.7656 C   0  0  0  0  0  0  0  0  0  0  0  0
   30.8864    0.6302   28.4376 C   0  0  0  0  0  0  0  0  0  0  0  0
   29.9887   -1.7123   28.6785 C   0  0  0  0  0  0  0  0  0  0  0  0
   32.7086   -2.5319   25.3459 C   0  0  0  0  0  0  0  0  0  0  0  0
   30.8189   -0.4481   25.7121 C   0  0  0  0  0  0  0  0  0  0  0  0
   30.5159    0.8378   29.8173 O   0  0  0  0  0  0  0  0  0  0  0  0
   29.6468    0.9721   27.5360 C   0  0  0  0  0  0  0  0  0  0  0  0
   28.6624   -1.2378   28.0596 C   0  0  0  0  0  0  0  0  0  0  0  0
   33.6286   -3.5200   25.1883 O   0  0  0  0  0  0  0  0  0  0  0  0
   32.0870   -1.9256   24.2466 C   0  0  0  0  0  0  0  0  0  0  0  0
   31.1583   -0.8757   24.4281 C   0  0  0  0  0  0  0  0  0  0  0  0
   29.9220    0.7256   26.0102 C   0  0  0  0  0  0  0  0  0  0  0  0
   28.4906    0.2256   28.1334 N   0  0  0  0  0  0  0  0  0  0  0  0
   29.5384    0.7327   29.8366 H   0  0  0  0  0  0  0  0  0  0  0  0
   33.8029   -3.6450   24.2430 H   0  0  0  0  0  0  0  0  0  0  0  0
   27.1734    0.6113   27.6069 C   0  0  0  0  0  0  0  0  0  0  0  0
   26.2161   -0.5454   27.5493 C   0  0  0  0  0  0  0  0  0  0  0  0
   25.4243   -0.8236   26.5041 C   0  0  0  0  0  0  0  0  0  0  0  0
  1  2  2  0  0  0
  2  3  1  0  0  0
  2  4  1  0  0  0
  3  5  1  0  0  0
  3  6  1  0  0  0
  4  7  1  0  0  0
  5  8  1  0  0  0
  6  9  1  0  0  0
  6 10  1  0  0  0
  6 11  1  0  0  0
  7 10  1  0  0  0
  8 12  1  0  0  0
  8  9  2  0  0  0
  9 13  1  0  0  0
 10 14  1  0  0  0
 10 15  1  0  0  0
 11 16  1  0  0  0
 12 17  1  0  0  0
 12 18  2  0  0  0
 13 19  2  0  0  0
 13 20  1  0  0  0
 14 22  1  0  0  0
 15 21  1  0  0  0
 15 20  1  0  0  0
 16 21  1  0  0  0
 17 23  1  0  0  0
 18 19  1  0  0  0
 21 24  1  0  0  0
 24 25  1  0  0  0
 25 26  2  0  0  0
M  END
> <minimizedAffinity>
-9.11626

$$$$
ZINC000000967520


 11 12  0  0  0  0  0  0  0  0999 V2000
   31.9748    0.5931   27.0146 O   0  0  0  0  0  0  0  0  0  0  0  0
   30.9020    0.0115   26.9712 C   0  0  0  0  0  0  0  0  0  0  0  0
   29.9361   -0.1894   28.1429 C   0  0  0  0  0  0  0  0  0  0  0  0
   30.3267   -0.6556   25.7376 C   0  0  0  0  0  0  0  0  0  0  0  0
   28.5821   -0.1595   27.3826 C   0  0  0  0  0  0  0  0  0  0  0  0
   30.1252   -1.6802   28.5058 C   0  0  0  0  0  0  0  0  0  0  0  0
   30.1248    0.7765   29.2877 C   0  0  0  0  0  0  0  0  0  0  0  0
   29.0466   -1.2485   26.3760 C   0  0  0  0  0  0  0  0  0  0  0  0
   28.2367    1.1976   26.7364 C   0  0  0  0  0  0  0  0  0  0  0  0
   27.3565   -0.5706   28.2214 C   0  0  0  0  0  0  0  0  0  0  0  0
   29.4915   -2.4104   27.3005 C   0  0  0  0  0  0  0  0  0  0  0  0
  1  2  2  0  0  0
  2  3  1  0  0  0
  2  4  1  0  0  0
  3  5  1  0  0  0
  3  6  1  0  0  0
  3  7  1  0  0  0
  4  8  1  0  0  0
  5  9  1  0  0  0
  5 10  1  0  0  0
  5  8  1  0  0  0
  6 11  1  0  0  0
  8 11  1  0  0  0
M  END
> <minimizedAffinity>
-5.86389

$$$$
ZINC000026011099


 41 45  0  0  0  0  0  0  0  0999 V2000
   36.1950   -3.3398   18.9822 C   0  0  0  0  0  0  0  0  0  0  0  0
   36.7056   -2.0170   18.4793 C   0  0  0  0  0  0  0  0  0  0  0  0
   36.4744   -4.3297   17.8122 C   0  0  0  0  0  0  0  0  0  0  0  0
   37.3437   -2.1165   17.3063 C   0  0  0  0  0  0  0  0  0  0  0  0
   35.2570   -5.0797   17.2689 C   0  0  0  0  0  0  0  0  0  0  0  0
   37.3682   -3.5313   16.7915 C   0  0  0  0  0  0  0  0  0  0  0  0
   34.3694   -4.5294   16.3041 C   0  0  0  0  0  0  0  0  0  0  0  0
   35.0005   -6.3724   17.7762 C   0  0  0  0  0  0  0  0  0  0  0  0
   37.0509   -3.6653   15.3696 N   0  0  0  0  0  0  0  0  0  0  0  0
   38.8071   -4.0833   16.7957 C   0  0  0  0  0  0  0  0  0  0  0  0
   33.2590   -5.2718   15.8564 C   0  0  0  0  0  0  0  0  0  0  0  0
   34.5850   -3.1453   15.7487 C   0  0  0  0  0  0  0  0  0  0  0  0
   33.9003   -7.0631   17.3160 C   0  0  0  0  0  0  0  0  0  0  0  0
   35.8353   -3.0267   14.8677 C   0  0  0  0  0  0  0  0  0  0  0  0
   38.2350   -3.3293   14.5781 C   0  0  0  0  0  0  0  0  0  0  0  0
   39.4211   -3.5933   15.4933 C   0  0  0  0  0  0  0  0  0  0  0  0
   33.0534   -6.5275   16.3813 C   0  0  0  0  0  0  0  0  0  0  0  0
   33.5136   -8.3025   17.7190 O   0  0  0  0  0  0  0  0  0  0  0  0
   32.0243   -7.3605   16.0724 O   0  0  0  0  0  0  0  0  0  0  0  0
   32.3252   -8.4877   16.9218 C   0  0  0  0  0  0  0  0  0  0  0  0
   36.4905   -0.9158   19.2612 O   0  0  0  0  0  0  0  0  0  0  0  0
   35.5517    0.0361   18.7746 C   0  0  0  0  0  0  0  0  0  0  0  0
   34.8120   -3.2015   19.3232 O   0  0  0  0  0  0  0  0  0  0  0  0
   35.3879   -3.0788   21.5427 O   0  0  0  0  0  0  0  0  0  0  0  0
   34.5472   -3.1932   20.6554 C   0  0  0  0  0  0  0  0  0  0  0  0
   33.0429   -3.3862   20.9431 C   0  0  0  0  0  0  0  0  0  0  0  0
   32.8324   -4.7793   21.2218 O   0  0  0  0  0  0  0  0  0  0  0  0
   33.4611   -5.2846   20.6675 H   0  0  0  0  0  0  0  0  0  0  0  0
   32.6590   -2.5605   22.1920 C   0  0  0  0  0  0  0  0  0  0  0  0
   32.5019   -3.3663   23.4907 C   0  0  0  0  0  0  0  0  0  0  0  0
   33.1371   -2.6272   24.6726 C   0  0  0  0  0  0  0  0  0  0  0  0
   32.1449   -2.0196   25.6850 C   0  0  0  0  0  0  0  0  0  0  0  0
   31.4351   -3.1103   26.2894 O   0  0  0  0  0  0  0  0  0  0  0  0
   32.8556   -1.2815   26.8203 C   0  0  0  0  0  0  0  0  0  0  0  0
   31.1143   -1.1045   25.0210 C   0  0  0  0  0  0  0  0  0  0  0  0
   30.9271   -3.5576   25.5911 H   0  0  0  0  0  0  0  0  0  0  0  0
   32.3057   -3.0073   19.6570 C   0  0  0  0  0  0  0  0  0  0  0  0
   30.8093   -3.1020   19.7432 C   0  0  0  0  0  0  0  0  0  0  0  0
   30.1969   -3.5712   20.6925 O   0  0  0  0  0  0  0  0  0  0  0  0
   30.2375   -2.6146   18.6061 O   0  0  0  0  0  0  0  0  0  0  0  0
   31.1650   -2.0112   17.7022 C   0  0  0  0  0  0  0  0  0  0  0  0
 24 25  2  0  0  0
 25 23  1  0  0  0
 23  1  1  0  0  0
 26 25  1  0  0  0
 26 27  1  0  0  0
 26 37  1  0  0  0
 26 29  1  0  0  0
  1  2  1  0  0  0
  1  3  1  0  0  0
 27 28  1  0  0  0
 37 38  1  0  0  0
 29 30  1  0  0  0
  2 21  1  0  0  0
  2  4  2  0  0  0
  3  5  1  0  0  0
  3  6  1  0  0  0
 38 39  2  0  0  0
 38 40  1  0  0  0
 30 31  1  0  0  0
 21 22  1  0  0  0
  5  7  2  0  0  0
  5  8  1  0  0  0
  6  9  1  0  0  0
  6 10  1  0  0  0
  6  4  1  0  0  0
 40 41  1  0  0  0
 31 32  1  0  0  0
  7 11  1  0  0  0
  7 12  1  0  0  0
  8 13  2  0  0  0
  9 14  1  0  0  0
  9 15  1  0  0  0
 10 16  1  0  0  0
 32 33  1  0  0  0
 32 34  1  0  0  0
 32 35  1  0  0  0
 11 17  2  0  0  0
 12 14  1  0  0  0
 13 18  1  0  0  0
 13 17  1  0  0  0
 15 16  1  0  0  0
 33 36  1  0  0  0
 17 19  1  0  0  0
 18 20  1  0  0  0
 19 20  1  0  0  0
M  END
> <minimizedAffinity>
-7.51965

$$$$
ZINC000000901791


 12 12  0  0  0  0  0  0  0  0999 V2000
   27.2066   -1.6738   26.5773 C   0  0  0  0  0  0  0  0  0  0  0  0
   28.2986   -0.6652   26.5723 N   0  0  0  0  0  0  0  0  0  0  0  0
   27.7812   -2.9200   27.2547 C   0  0  0  0  0  0  0  0  0  0  0  0
   29.0359   -0.9349   27.8197 C   0  0  0  0  0  0  0  0  0  0  0  0
   29.0866   -2.4576   27.8908 C   0  0  0  0  0  0  0  0  0  0  0  0
   30.1722   -2.9520   27.1025 O   0  0  0  0  0  0  0  0  0  0  0  0
   28.9233   -0.9159   25.8007 H   0  0  0  0  0  0  0  0  0  0  0  0
   30.9961   -2.6404   27.5160 H   0  0  0  0  0  0  0  0  0  0  0  0
   25.8635   -1.0396   28.5470 O   0  0  0  0  0  0  0  0  0  0  0  0
   25.9939   -1.1278   27.3352 C   0  0  0  0  0  0  0  0  0  0  0  0
   25.0157   -0.6921   26.5128 O   0  0  0  0  0  0  0  0  0  0  0  0
   24.3522   -0.3066   27.1209 H   0  0  0  0  0  0  0  0  0  0  0  0
  9 10  2  0  0  0
 10 11  1  0  0  0
 10  1  1  0  0  0
 11 12  1  0  0  0
  1  2  1  0  0  0
  1  3  1  0  0  0
  2  4  1  0  0  0
  2  7  1  0  0  0
  3  5  1  0  0  0
  4  5  1  0  0  0
  5  6  1  0  0  0
  6  8  1  0  0  0
M  END
> <minimizedAffinity>
-5.06854

$$$$
ZINC000001532522


 15 14  0  0  0  0  0  0  0  0999 V2000
   27.2419    0.1382   27.1337 C   0  0  0  0  0  0  0  0  0  0  0  0
   27.1248    1.5683   27.4798 N   0  0  0  0  0  0  0  0  0  0  0  0
   26.8634    1.6433   28.4654 H   0  0  0  0  0  0  0  0  0  0  0  0
   28.0276    2.0280   27.3848 H   0  0  0  0  0  0  0  0  0  0  0  0
   25.7531   -1.1445   28.6284 O   0  0  0  0  0  0  0  0  0  0  0  0
   25.9626   -0.5939   27.5577 C   0  0  0  0  0  0  0  0  0  0  0  0
   25.0334   -0.6334   26.5797 O   0  0  0  0  0  0  0  0  0  0  0  0
   24.2870   -1.1155   26.9933 H   0  0  0  0  0  0  0  0  0  0  0  0
   28.4387   -0.5417   27.8160 C   0  0  0  0  0  0  0  0  0  0  0  0
   28.9058   -1.8621   27.1905 C   0  0  0  0  0  0  0  0  0  0  0  0
   28.9892   -3.0162   28.1946 C   0  0  0  0  0  0  0  0  0  0  0  0
   27.7545   -3.9199   28.1636 C   0  0  0  0  0  0  0  0  0  0  0  0
   26.9766   -3.7233   26.9460 N   0  0  0  0  0  0  0  0  0  0  0  0
   26.1497   -4.3192   26.9752 H   0  0  0  0  0  0  0  0  0  0  0  0
   26.6312   -2.7646   26.9126 H   0  0  0  0  0  0  0  0  0  0  0  0
  5  6  2  0  0  0
  6  7  1  0  0  0
  6  1  1  0  0  0
  7  8  1  0  0  0
  1  2  1  0  0  0
  1  9  1  0  0  0
  2  3  1  0  0  0
  2  4  1  0  0  0
  9 10  1  0  0  0
 10 11  1  0  0  0
 11 12  1  0  0  0
 12 13  1  0  0  0
 13 14  1  0  0  0
 13 15  1  0  0  0
M  END
> <minimizedAffinity>
-5.16550

$$$$
ZINC000003830891


 27 26  0  0  0  0  0  0  0  0999 V2000
   29.9482   -0.2440   28.1733 N   0  0  0  0  0  0  0  0  0  0  0  0
   28.8695    0.6025   28.2127 C   0  0  0  0  0  0  0  0  0  0  0  0
   28.9692    1.7878   28.5068 O   0  0  0  0  0  0  0  0  0  0  0  0
   29.8428   -1.2109   27.8738 H   0  0  0  0  0  0  0  0  0  0  0  0
   27.5623   -0.0771   27.8572 C   0  0  0  0  0  0  0  0  0  0  0  0
   27.7306   -1.0778   26.7140 C   0  0  0  0  0  0  0  0  0  0  0  0
   27.0888   -2.4387   27.0065 C   0  0  0  0  0  0  0  0  0  0  0  0
   25.8855   -2.3288   27.8555 N   0  0  0  0  0  0  0  0  0  0  0  0
   26.1850   -2.1600   28.8202 H   0  0  0  0  0  0  0  0  0  0  0  0
   25.3163   -1.5321   27.5860 H   0  0  0  0  0  0  0  0  0  0  0  0
   28.1203   -3.3375   27.6987 C   0  0  0  0  0  0  0  0  0  0  0  0
   27.8927   -4.2015   28.5326 O   0  0  0  0  0  0  0  0  0  0  0  0
   29.3874   -3.0627   27.3276 O   0  0  0  0  0  0  0  0  0  0  0  0
   29.9226   -3.7019   27.8433 H   0  0  0  0  0  0  0  0  0  0  0  0
   31.3136    0.2217   28.4245 C   0  0  0  0  0  0  0  0  0  0  0  0
   32.1361   -0.1389   27.1704 C   0  0  0  0  0  0  0  0  0  0  0  0
   33.2367    0.3669   26.9454 O   0  0  0  0  0  0  0  0  0  0  0  0
   31.5608   -1.0628   26.3332 N   0  0  0  0  0  0  0  0  0  0  0  0
   30.6733   -1.4848   26.5872 H   0  0  0  0  0  0  0  0  0  0  0  0
   32.2489   -1.5616   25.1548 C   0  0  0  0  0  0  0  0  0  0  0  0
   32.7038   -2.9965   25.3671 C   0  0  0  0  0  0  0  0  0  0  0  0
   33.5456   -3.6013   24.7201 O   0  0  0  0  0  0  0  0  0  0  0  0
   32.1250   -3.5723   26.4406 O   0  0  0  0  0  0  0  0  0  0  0  0
   32.5030   -4.4769   26.4591 H   0  0  0  0  0  0  0  0  0  0  0  0
   32.3508    0.8081   30.9560 S   0  0  0  0  0  0  0  0  0  0  0  0
   31.9152   -0.4257   29.6799 C   0  0  0  0  0  0  0  0  0  0  0  0
   31.0881    1.0915   31.3184 H   0  0  0  0  0  0  0  0  0  0  0  0
 25 26  1  0  0  0
 25 27  1  0  0  0
 26 15  1  0  0  0
 15  1  1  0  0  0
 15 16  1  0  0  0
  1  2  1  0  0  0
  1  4  1  0  0  0
 16 17  2  0  0  0
 16 18  1  0  0  0
  2  3  2  0  0  0
  2  5  1  0  0  0
 18 20  1  0  0  0
 18 19  1  0  0  0
  5  6  1  0  0  0
 20 21  1  0  0  0
  6  7  1  0  0  0
 21 22  2  0  0  0
 21 23  1  0  0  0
  7  8  1  0  0  0
  7 11  1  0  0  0
 23 24  1  0  0  0
  8  9  1  0  0  0
  8 10  1  0  0  0
 11 12  2  0  0  0
 11 13  1  0  0  0
 13 14  1  0  0  0
M  END
> <minimizedAffinity>
-6.37834

$$$$
ZINC000033943508


 23 23  0  0  0  0  0  0  0  0999 V2000
   29.9796   -1.0452   24.7946 C   0  0  0  0  0  0  0  0  0  0  0  0
   31.3278   -1.1313   24.7845 C   0  0  0  0  0  0  0  0  0  0  0  0
   32.0031   -1.7554   23.5840 C   0  0  0  0  0  0  0  0  0  0  0  0
   28.1502   -1.2121   26.4187 C   0  0  0  0  0  0  0  0  0  0  0  0
   29.1180   -0.4916   25.8239 C   0  0  0  0  0  0  0  0  0  0  0  0
   26.5054   -1.5553   28.2517 C   0  0  0  0  0  0  0  0  0  0  0  0
   27.2374   -0.7434   27.4602 C   0  0  0  0  0  0  0  0  0  0  0  0
   27.1116    0.7509   27.6567 C   0  0  0  0  0  0  0  0  0  0  0  0
   27.3667   -3.8314   28.2727 O   0  0  0  0  0  0  0  0  0  0  0  0
   26.4552   -3.0300   28.2531 C   0  0  0  0  0  0  0  0  0  0  0  0
   25.1715   -3.4318   28.2284 O   0  0  0  0  0  0  0  0  0  0  0  0
   25.2386   -4.4095   28.2316 H   0  0  0  0  0  0  0  0  0  0  0  0
   32.1868   -0.6552   25.8672 C   0  0  0  0  0  0  0  0  0  0  0  0
   31.8455    0.2196   26.8301 C   0  0  0  0  0  0  0  0  0  0  0  0
   32.7688    0.6741   27.8674 C   0  0  0  0  0  0  0  0  0  0  0  0
   33.6739    1.6587   27.6430 C   0  0  0  0  0  0  0  0  0  0  0  0
   32.6437   -0.0490   29.2261 C   0  0  0  0  0  0  0  0  0  0  0  0
   34.6324    2.1422   28.7110 C   0  0  0  0  0  0  0  0  0  0  0  0
   33.8593    2.3815   26.3283 C   0  0  0  0  0  0  0  0  0  0  0  0
   33.3528    0.7518   30.3509 C   0  0  0  0  0  0  0  0  0  0  0  0
   31.1702   -0.2150   29.6683 C   0  0  0  0  0  0  0  0  0  0  0  0
   33.2775   -1.4541   29.1184 C   0  0  0  0  0  0  0  0  0  0  0  0
   34.7311    1.2375   29.9326 C   0  0  0  0  0  0  0  0  0  0  0  0
  9 10  2  0  0  0
 10 11  1  0  0  0
 10  6  1  0  0  0
 11 12  1  0  0  0
  6  7  2  0  0  0
  7  4  1  0  0  0
  7  8  1  0  0  0
  4  5  2  0  0  0
  5  1  1  0  0  0
  1  2  2  0  0  0
  2 13  1  0  0  0
  2  3  1  0  0  0
 13 14  2  0  0  0
 14 15  1  0  0  0
 15 16  2  0  0  0
 15 17  1  0  0  0
 16 18  1  0  0  0
 16 19  1  0  0  0
 17 20  1  0  0  0
 17 21  1  0  0  0
 17 22  1  0  0  0
 18 23  1  0  0  0
 20 23  1  0  0  0
M  END
> <minimizedAffinity>
-8.87458

$$$$
ZINC000004474414


 31 33  0  0  0  0  0  0  0  0999 V2000
   33.1946   -3.1904   21.6967 C   0  0  0  0  0  0  0  0  0  0  0  0
   34.2827   -2.7667   20.6671 C   0  0  0  0  0  0  0  0  0  0  0  0
   31.8959   -3.2594   20.8592 C   0  0  0  0  0  0  0  0  0  0  0  0
   33.8517   -3.6491   19.4651 C   0  0  0  0  0  0  0  0  0  0  0  0
   35.7158   -3.1702   21.0751 C   0  0  0  0  0  0  0  0  0  0  0  0
   34.2454   -1.2563   20.3426 C   0  0  0  0  0  0  0  0  0  0  0  0
   32.3372   -3.4259   19.3920 C   0  0  0  0  0  0  0  0  0  0  0  0
   34.7672   -3.4586   18.2728 C   0  0  0  0  0  0  0  0  0  0  0  0
   36.6967   -3.0776   19.8945 C   0  0  0  0  0  0  0  0  0  0  0  0
   34.3254   -3.0550   17.0658 C   0  0  0  0  0  0  0  0  0  0  0  0
   36.2038   -3.8069   18.6342 C   0  0  0  0  0  0  0  0  0  0  0  0
   35.1202   -2.8378   15.8726 C   0  0  0  0  0  0  0  0  0  0  0  0
   36.0700   -1.8962   15.6977 C   0  0  0  0  0  0  0  0  0  0  0  0
   36.4607   -0.8705   16.6632 C   0  0  0  0  0  0  0  0  0  0  0  0
   36.8969   -1.8489   14.4290 C   0  0  0  0  0  0  0  0  0  0  0  0
   35.5974    0.0335   17.1517 C   0  0  0  0  0  0  0  0  0  0  0  0
   37.9326   -0.8536   17.0006 C   0  0  0  0  0  0  0  0  0  0  0  0
   38.4021   -1.8653   14.7338 C   0  0  0  0  0  0  0  0  0  0  0  0
   38.7858   -0.7722   15.7354 C   0  0  0  0  0  0  0  0  0  0  0  0
   39.1476   -1.6875   13.5300 O   0  0  0  0  0  0  0  0  0  0  0  0
   38.9268   -0.8114   13.1687 H   0  0  0  0  0  0  0  0  0  0  0  0
   33.1218   -2.4189   23.0438 C   0  0  0  0  0  0  0  0  0  0  0  0
   33.5716   -3.3566   24.1798 C   0  0  0  0  0  0  0  0  0  0  0  0
   31.7395   -1.8202   23.3898 C   0  0  0  0  0  0  0  0  0  0  0  0
   31.8075   -0.7508   24.4913 C   0  0  0  0  0  0  0  0  0  0  0  0
   30.7295   -0.9899   25.5542 C   0  0  0  0  0  0  0  0  0  0  0  0
   31.1283   -3.0315   26.7488 O   0  0  0  0  0  0  0  0  0  0  0  0
   31.2275   -1.6066   26.8776 C   0  0  0  0  0  0  0  0  0  0  0  0
   32.7010   -1.2953   27.1436 C   0  0  0  0  0  0  0  0  0  0  0  0
   30.3726   -1.1895   28.0761 C   0  0  0  0  0  0  0  0  0  0  0  0
   30.1922   -3.2552   26.6085 H   0  0  0  0  0  0  0  0  0  0  0  0
 27 28  1  0  0  0
 27 31  1  0  0  0
 28 26  1  0  0  0
 28 29  1  0  0  0
 28 30  1  0  0  0
 26 25  1  0  0  0
 25 24  1  0  0  0
 24 22  1  0  0  0
 22  1  1  0  0  0
 22 23  1  0  0  0
  1  2  1  0  0  0
  1  3  1  0  0  0
  2  4  1  0  0  0
  2  5  1  0  0  0
  2  6  1  0  0  0
  3  7  1  0  0  0
  4  8  1  0  0  0
  4  7  1  0  0  0
  5  9  1  0  0  0
  8 10  2  0  0  0
  8 11  1  0  0  0
  9 11  1  0  0  0
 10 12  1  0  0  0
 12 13  2  0  0  0
 13 14  1  0  0  0
 13 15  1  0  0  0
 14 16  2  0  0  0
 14 17  1  0  0  0
 15 18  1  0  0  0
 17 19  1  0  0  0
 18 20  1  0  0  0
 18 19  1  0  0  0
 20 21  1  0  0  0
M  END
> <minimizedAffinity>
-7.31526

$$$$
ZINC000001530575


 24 24  0  0  0  0  0  0  0  0999 V2000
   28.0652    1.6205   26.2853 O   0  0  0  0  0  0  0  0  0  0  0  0
   27.7794    0.8457   27.1908 C   0  0  0  0  0  0  0  0  0  0  0  0
   28.3938    0.8707   28.4217 N   0  0  0  0  0  0  0  0  0  0  0  0
   28.1210    0.2112   29.1391 H   0  0  0  0  0  0  0  0  0  0  0  0
   29.4238    1.8365   28.7170 C   0  0  0  0  0  0  0  0  0  0  0  0
   30.7582    1.1590   28.8810 C   0  0  0  0  0  0  0  0  0  0  0  0
   31.8634    1.5773   28.1176 C   0  0  0  0  0  0  0  0  0  0  0  0
   30.8998    0.0729   29.7544 C   0  0  0  0  0  0  0  0  0  0  0  0
   33.1001    0.9345   28.2350 C   0  0  0  0  0  0  0  0  0  0  0  0
   32.1277   -0.5763   29.8791 C   0  0  0  0  0  0  0  0  0  0  0  0
   33.2166   -0.1444   29.1221 C   0  0  0  0  0  0  0  0  0  0  0  0
   34.4227   -0.7836   29.2426 O   0  0  0  0  0  0  0  0  0  0  0  0
   34.3478   -1.4801   29.9121 H   0  0  0  0  0  0  0  0  0  0  0  0
   34.2300    1.2692   27.5361 O   0  0  0  0  0  0  0  0  0  0  0  0
   35.0277    2.3276   28.0462 C   0  0  0  0  0  0  0  0  0  0  0  0
   26.7273   -0.2409   27.0795 C   0  0  0  0  0  0  0  0  0  0  0  0
   27.0320   -1.4406   27.9736 C   0  0  0  0  0  0  0  0  0  0  0  0
   27.8807   -2.4807   27.2360 C   0  0  0  0  0  0  0  0  0  0  0  0
   29.1623   -2.8506   27.9891 C   0  0  0  0  0  0  0  0  0  0  0  0
   30.4059   -2.3861   27.2857 C   0  0  0  0  0  0  0  0  0  0  0  0
   30.4034   -1.5339   26.2486 C   0  0  0  0  0  0  0  0  0  0  0  0
   31.6507   -1.0719   25.5368 C   0  0  0  0  0  0  0  0  0  0  0  0
   31.4082   -1.0143   24.0292 C   0  0  0  0  0  0  0  0  0  0  0  0
   32.8171   -2.0053   25.8597 C   0  0  0  0  0  0  0  0  0  0  0  0
  1  2  2  0  0  0
  2  3  1  0  0  0
  2 16  1  0  0  0
  3  5  1  0  0  0
  3  4  1  0  0  0
 16 17  1  0  0  0
  5  6  1  0  0  0
 17 18  1  0  0  0
  6  7  2  0  0  0
  6  8  1  0  0  0
 18 19  1  0  0  0
  7  9  1  0  0  0
  8 10  2  0  0  0
 19 20  1  0  0  0
  9 14  1  0  0  0
  9 11  2  0  0  0
 10 11  1  0  0  0
 20 21  2  0  0  0
 14 15  1  0  0  0
 11 12  1  0  0  0
 21 22  1  0  0  0
 12 13  1  0  0  0
 22 23  1  0  0  0
 22 24  1  0  0  0
M  END
> <minimizedAffinity>
-7.10077

$$$$
ZINC000003780893


 31 33  0  0  0  0  0  0  0  0999 V2000
   31.6274   -1.0473   26.2064 C   0  0  0  0  0  0  0  0  0  0  0  0
   30.3472   -1.8448   26.6107 C   0  0  0  0  0  0  0  0  0  0  0  0
   31.4522    0.4845   26.3935 C   0  0  0  0  0  0  0  0  0  0  0  0
   29.0303   -1.1166   26.3931 C   0  0  0  0  0  0  0  0  0  0  0  0
   30.4062   -2.4253   28.0486 C   0  0  0  0  0  0  0  0  0  0  0  0
   30.1318    0.9848   25.8715 C   0  0  0  0  0  0  0  0  0  0  0  0
   32.6169    1.3011   25.8268 C   0  0  0  0  0  0  0  0  0  0  0  0
   29.0267    0.2288   25.8748 C   0  0  0  0  0  0  0  0  0  0  0  0
   27.8931   -1.7453   26.7367 C   0  0  0  0  0  0  0  0  0  0  0  0
   29.0618   -3.0312   28.5218 C   0  0  0  0  0  0  0  0  0  0  0  0
   27.9631   -3.0774   27.4409 C   0  0  0  0  0  0  0  0  0  0  0  0
   26.6191   -3.4495   28.0675 C   0  0  0  0  0  0  0  0  0  0  0  0
   32.1400   -1.4893   24.8040 C   0  0  0  0  0  0  0  0  0  0  0  0
   32.9624   -2.7835   24.7443 C   0  0  0  0  0  0  0  0  0  0  0  0
   30.8218   -3.1234   20.6009 O   0  0  0  0  0  0  0  0  0  0  0  0
   31.8525   -3.2526   21.2490 C   0  0  0  0  0  0  0  0  0  0  0  0
   31.9292   -2.8925   22.5566 O   0  0  0  0  0  0  0  0  0  0  0  0
   33.1097   -3.8418   20.6758 C   0  0  0  0  0  0  0  0  0  0  0  0
   33.0739   -3.3269   23.3122 C   0  0  0  0  0  0  0  0  0  0  0  0
   34.2927   -3.0032   21.1232 C   0  0  0  0  0  0  0  0  0  0  0  0
   34.3633   -2.8535   22.6421 C   0  0  0  0  0  0  0  0  0  0  0  0
   35.5096   -3.5619   20.6336 O   0  0  0  0  0  0  0  0  0  0  0  0
   35.6115   -4.4612   20.9902 H   0  0  0  0  0  0  0  0  0  0  0  0
   30.8172   -1.3879   28.9670 O   0  0  0  0  0  0  0  0  0  0  0  0
   32.1528   -1.2897   29.2173 C   0  0  0  0  0  0  0  0  0  0  0  0
   32.9821   -2.1239   28.8774 O   0  0  0  0  0  0  0  0  0  0  0  0
   32.4834    0.0290   29.9295 C   0  0  0  0  0  0  0  0  0  0  0  0
   31.5509    1.1437   29.4253 C   0  0  0  0  0  0  0  0  0  0  0  0
   32.2376   -0.1611   31.4371 C   0  0  0  0  0  0  0  0  0  0  0  0
   33.9705    0.3441   29.6402 C   0  0  0  0  0  0  0  0  0  0  0  0
   34.2428    1.6998   29.0016 C   0  0  0  0  0  0  0  0  0  0  0  0
 15 16  2  0  0  0
 16 17  1  0  0  0
 16 18  1  0  0  0
 17 19  1  0  0  0
 18 20  1  0  0  0
 19 21  1  0  0  0
 19 14  1  0  0  0
 20 22  1  0  0  0
 20 21  1  0  0  0
 14 13  1  0  0  0
 22 23  1  0  0  0
 13  1  1  0  0  0
  1  2  1  0  0  0
  1  3  1  0  0  0
  2  4  1  0  0  0
  2  5  1  0  0  0
  3  6  1  0  0  0
  3  7  1  0  0  0
  4  8  1  0  0  0
  4  9  2  0  0  0
  5 24  1  0  0  0
  5 10  1  0  0  0
  6  8  2  0  0  0
  9 11  1  0  0  0
 24 25  1  0  0  0
 10 11  1  0  0  0
 11 12  1  0  0  0
 25 26  2  0  0  0
 25 27  1  0  0  0
 27 30  1  0  0  0
 27 28  1  0  0  0
 27 29  1  0  0  0
 30 31  1  0  0  0
M  END
> <minimizedAffinity>
-8.74017

$$$$
ZINC000003875332


 31 34  0  0  0  0  0  0  0  0999 V2000
   29.5018   -2.0153   29.1193 F   0  0  0  0  0  0  0  0  0  0  0  0
   29.6390   -1.3715   27.8962 C   0  0  0  0  0  0  0  0  0  0  0  0
   28.3143   -1.6831   27.0862 C   0  0  0  0  0  0  0  0  0  0  0  0
   30.9570   -1.9560   27.2948 C   0  0  0  0  0  0  0  0  0  0  0  0
   29.7738    0.1474   28.2503 C   0  0  0  0  0  0  0  0  0  0  0  0
   27.1331   -1.0900   27.8760 C   0  0  0  0  0  0  0  0  0  0  0  0
   28.1385   -3.1874   26.8912 C   0  0  0  0  0  0  0  0  0  0  0  0
   28.2858   -1.0627   25.6701 C   0  0  0  0  0  0  0  0  0  0  0  0
   31.1417   -1.7123   25.9051 O   0  0  0  0  0  0  0  0  0  0  0  0
   32.2369   -1.5647   28.0719 C   0  0  0  0  0  0  0  0  0  0  0  0
   31.0232    0.3371   29.1272 C   0  0  0  0  0  0  0  0  0  0  0  0
   28.5192    0.6575   28.9858 C   0  0  0  0  0  0  0  0  0  0  0  0
   26.0810   -1.8137   28.2989 C   0  0  0  0  0  0  0  0  0  0  0  0
   27.2351    0.3751   28.2135 C   0  0  0  0  0  0  0  0  0  0  0  0
   27.0892   -3.9040   27.3157 C   0  0  0  0  0  0  0  0  0  0  0  0
   32.3420   -0.0659   28.4273 C   0  0  0  0  0  0  0  0  0  0  0  0
   31.3182    1.7171   29.7120 C   0  0  0  0  0  0  0  0  0  0  0  0
   25.9750   -3.2640   28.0395 C   0  0  0  0  0  0  0  0  0  0  0  0
   33.3665    0.3018   29.5577 C   0  0  0  0  0  0  0  0  0  0  0  0
   32.6375    0.7758   27.1572 C   0  0  0  0  0  0  0  0  0  0  0  0
   32.8242    1.6787   30.0813 C   0  0  0  0  0  0  0  0  0  0  0  0
   25.0018   -3.9075   28.4112 O   0  0  0  0  0  0  0  0  0  0  0  0
   33.3499   -0.6803   30.5966 O   0  0  0  0  0  0  0  0  0  0  0  0
   33.0669    1.9472   31.5641 C   0  0  0  0  0  0  0  0  0  0  0  0
   31.0718   -0.7654   25.7147 H   0  0  0  0  0  0  0  0  0  0  0  0
   32.5545   -0.5699   31.1453 H   0  0  0  0  0  0  0  0  0  0  0  0
   34.8260    0.4189   29.0634 C   0  0  0  0  0  0  0  0  0  0  0  0
   35.5393   -0.5658   28.8408 O   0  0  0  0  0  0  0  0  0  0  0  0
   35.3879    1.8228   28.8613 C   0  0  0  0  0  0  0  0  0  0  0  0
   35.8163    2.0178   27.5185 O   0  0  0  0  0  0  0  0  0  0  0  0
   35.2433    1.4477   26.9672 H   0  0  0  0  0  0  0  0  0  0  0  0
  2  1  1  0  0  0
  2  3  1  0  0  0
  2  4  1  0  0  0
  2  5  1  0  0  0
  3  6  1  0  0  0
  3  7  1  0  0  0
  3  8  1  0  0  0
  4  9  1  0  0  0
  4 10  1  0  0  0
  5 11  1  0  0  0
  5 12  1  0  0  0
  6 13  2  0  0  0
  6 14  1  0  0  0
  7 15  2  0  0  0
  9 25  1  0  0  0
 10 16  1  0  0  0
 11 17  1  0  0  0
 11 16  1  0  0  0
 12 14  1  0  0  0
 13 18  1  0  0  0
 15 18  1  0  0  0
 16 19  1  0  0  0
 16 20  1  0  0  0
 17 21  1  0  0  0
 18 22  2  0  0  0
 19 23  1  0  0  0
 19 27  1  0  0  0
 19 21  1  0  0  0
 21 24  1  0  0  0
 23 26  1  0  0  0
 27 28  2  0  0  0
 27 29  1  0  0  0
 29 30  1  0  0  0
 30 31  1  0  0  0
M  END
> <minimizedAffinity>
-7.61789

$$$$
ZINC000004095858


 32 33  0  0  0  0  0  0  0  0999 V2000
   29.9297    0.3790   28.1080 O   0  0  0  0  0  0  0  0  0  0  0  0
   28.8982   -0.5249   28.0452 C   0  0  0  0  0  0  0  0  0  0  0  0
   31.1787   -0.0422   28.6731 C   0  0  0  0  0  0  0  0  0  0  0  0
   29.0598   -1.8953   28.3092 C   0  0  0  0  0  0  0  0  0  0  0  0
   27.6482    0.0052   27.6600 C   0  0  0  0  0  0  0  0  0  0  0  0
   31.5206   -1.4776   28.2633 C   0  0  0  0  0  0  0  0  0  0  0  0
   31.0807    0.1175   30.2045 C   0  0  0  0  0  0  0  0  0  0  0  0
   27.9350   -2.7455   28.2564 C   0  0  0  0  0  0  0  0  0  0  0  0
   30.4166   -2.4363   28.6774 C   0  0  0  0  0  0  0  0  0  0  0  0
   26.5466   -0.8623   27.4922 C   0  0  0  0  0  0  0  0  0  0  0  0
   27.5297    1.4822   27.3693 C   0  0  0  0  0  0  0  0  0  0  0  0
   26.7015   -2.2158   27.8415 C   0  0  0  0  0  0  0  0  0  0  0  0
   28.0560   -4.2146   28.5769 C   0  0  0  0  0  0  0  0  0  0  0  0
   25.2323   -0.3413   26.9706 C   0  0  0  0  0  0  0  0  0  0  0  0
   25.6402   -3.0827   27.7839 O   0  0  0  0  0  0  0  0  0  0  0  0
   24.8209   -2.5772   27.8985 H   0  0  0  0  0  0  0  0  0  0  0  0
   32.2637    0.9555   28.1799 C   0  0  0  0  0  0  0  0  0  0  0  0
   33.1077    0.5690   26.9523 C   0  0  0  0  0  0  0  0  0  0  0  0
   32.4021    0.7437   25.6040 C   0  0  0  0  0  0  0  0  0  0  0  0
   32.0744   -0.5966   24.9126 C   0  0  0  0  0  0  0  0  0  0  0  0
   30.5680   -0.8689   24.8704 C   0  0  0  0  0  0  0  0  0  0  0  0
   32.8386   -1.7722   25.5616 C   0  0  0  0  0  0  0  0  0  0  0  0
   32.6919   -3.1218   24.8480 C   0  0  0  0  0  0  0  0  0  0  0  0
   33.9103   -3.4040   23.9592 C   0  0  0  0  0  0  0  0  0  0  0  0
   33.6296   -3.4275   22.4403 C   0  0  0  0  0  0  0  0  0  0  0  0
   34.8511   -2.9734   21.6372 C   0  0  0  0  0  0  0  0  0  0  0  0
   32.3688   -2.6158   22.0861 C   0  0  0  0  0  0  0  0  0  0  0  0
   31.4257   -3.3433   21.1212 C   0  0  0  0  0  0  0  0  0  0  0  0
   31.9608   -3.2835   19.6861 C   0  0  0  0  0  0  0  0  0  0  0  0
   30.8586   -3.1183   18.6243 C   0  0  0  0  0  0  0  0  0  0  0  0
   31.1687   -1.9066   17.7415 C   0  0  0  0  0  0  0  0  0  0  0  0
   29.4692   -2.9637   19.2438 C   0  0  0  0  0  0  0  0  0  0  0  0
  1  2  1  0  0  0
  1  3  1  0  0  0
  2  4  2  0  0  0
  2  5  1  0  0  0
  3  6  1  0  0  0
  3 17  1  0  0  0
  3  7  1  0  0  0
  4  8  1  0  0  0
  4  9  1  0  0  0
  5 10  2  0  0  0
  5 11  1  0  0  0
  6  9  1  0  0  0
 17 18  1  0  0  0
  8 12  2  0  0  0
  8 13  1  0  0  0
 10 14  1  0  0  0
 10 12  1  0  0  0
 18 19  1  0  0  0
 12 15  1  0  0  0
 19 20  1  0  0  0
 15 16  1  0  0  0
 20 22  1  0  0  0
 20 21  1  0  0  0
 22 23  1  0  0  0
 23 24  1  0  0  0
 24 25  1  0  0  0
 25 27  1  0  0  0
 25 26  1  0  0  0
 27 28  1  0  0  0
 28 29  1  0  0  0
 29 30  1  0  0  0
 30 31  1  0  0  0
 30 32  1  0  0  0
M  END
> <minimizedAffinity>
-9.24018

$$$$
ZINC000100015048


 33 35  0  0  0  0  0  0  0  0999 V2000
   33.5992   -2.8489   21.2405 C   0  0  0  0  0  0  0  0  0  0  0  0
   33.5992   -2.9890   19.6894 C   0  0  0  0  0  0  0  0  0  0  0  0
   35.1009   -2.8101   21.6078 C   0  0  0  0  0  0  0  0  0  0  0  0
   34.7364   -1.9912   19.3448 C   0  0  0  0  0  0  0  0  0  0  0  0
   32.3012   -2.4917   19.0193 C   0  0  0  0  0  0  0  0  0  0  0  0
   33.9052   -4.4289   19.2191 C   0  0  0  0  0  0  0  0  0  0  0  0
   35.8457   -2.3685   20.3325 C   0  0  0  0  0  0  0  0  0  0  0  0
   34.9693   -1.8953   17.8510 C   0  0  0  0  0  0  0  0  0  0  0  0
   32.4746   -2.3035   17.5037 C   0  0  0  0  0  0  0  0  0  0  0  0
   36.1570   -2.1618   17.2737 C   0  0  0  0  0  0  0  0  0  0  0  0
   33.7038   -1.4596   17.1273 C   0  0  0  0  0  0  0  0  0  0  0  0
   36.4826   -2.0523   15.8655 C   0  0  0  0  0  0  0  0  0  0  0  0
   37.5013   -2.6508   15.2133 C   0  0  0  0  0  0  0  0  0  0  0  0
   38.4711   -3.6086   15.7575 C   0  0  0  0  0  0  0  0  0  0  0  0
   37.8034   -2.2930   13.7683 C   0  0  0  0  0  0  0  0  0  0  0  0
   38.1249   -4.6477   16.5376 C   0  0  0  0  0  0  0  0  0  0  0  0
   39.9099   -3.4053   15.3064 C   0  0  0  0  0  0  0  0  0  0  0  0
   39.2015   -1.6600   13.6152 C   0  0  0  0  0  0  0  0  0  0  0  0
   40.2098   -4.3367   14.2643 O   0  0  0  0  0  0  0  0  0  0  0  0
   40.1537   -1.9958   14.7705 C   0  0  0  0  0  0  0  0  0  0  0  0
   39.1013   -0.2343   13.5279 O   0  0  0  0  0  0  0  0  0  0  0  0
   39.8560   -5.1985   14.5433 H   0  0  0  0  0  0  0  0  0  0  0  0
   38.5806   -0.0273   12.7334 H   0  0  0  0  0  0  0  0  0  0  0  0
   32.6929   -3.8111   22.0605 C   0  0  0  0  0  0  0  0  0  0  0  0
   31.2187   -3.4486   21.8063 C   0  0  0  0  0  0  0  0  0  0  0  0
   32.9623   -3.8347   23.5826 C   0  0  0  0  0  0  0  0  0  0  0  0
   32.5915   -2.5526   24.3481 C   0  0  0  0  0  0  0  0  0  0  0  0
   32.1870   -2.8088   25.8034 C   0  0  0  0  0  0  0  0  0  0  0  0
   30.4154   -1.5056   26.7625 O   0  0  0  0  0  0  0  0  0  0  0  0
   31.8426   -1.5489   26.6260 C   0  0  0  0  0  0  0  0  0  0  0  0
   32.4114   -1.6073   28.0443 C   0  0  0  0  0  0  0  0  0  0  0  0
   32.2814   -0.2587   25.9306 C   0  0  0  0  0  0  0  0  0  0  0  0
   30.0307   -1.4314   25.8724 H   0  0  0  0  0  0  0  0  0  0  0  0
 29 30  1  0  0  0
 29 33  1  0  0  0
 30 28  1  0  0  0
 30 31  1  0  0  0
 30 32  1  0  0  0
 28 27  1  0  0  0
 27 26  1  0  0  0
 26 24  1  0  0  0
 24  1  1  0  0  0
 24 25  1  0  0  0
  1  2  1  0  0  0
  1  3  1  0  0  0
  2  4  1  0  0  0
  2  5  1  0  0  0
  2  6  1  0  0  0
  3  7  1  0  0  0
  4  8  1  0  0  0
  4  7  1  0  0  0
  5  9  1  0  0  0
  8 10  2  0  0  0
  8 11  1  0  0  0
  9 11  1  0  0  0
 10 12  1  0  0  0
 12 13  2  0  0  0
 13 14  1  0  0  0
 13 15  1  0  0  0
 14 16  2  0  0  0
 14 17  1  0  0  0
 15 18  1  0  0  0
 17 19  1  0  0  0
 17 20  1  0  0  0
 18 21  1  0  0  0
 18 20  1  0  0  0
 19 22  1  0  0  0
 21 23  1  0  0  0
M  END
> <minimizedAffinity>
-7.72872

$$$$
ZINC000004474460


 29 31  0  0  0  0  0  0  0  0999 V2000
   32.4672   -2.1515   22.7070 C   0  0  0  0  0  0  0  0  0  0  0  0
   32.1399   -2.5121   23.9637 C   0  0  0  0  0  0  0  0  0  0  0  0
   31.1662   -1.7293   24.8237 C   0  0  0  0  0  0  0  0  0  0  0  0
   32.6494   -3.7365   24.7032 C   0  0  0  0  0  0  0  0  0  0  0  0
   31.8052   -1.2490   26.1598 C   0  0  0  0  0  0  0  0  0  0  0  0
   30.4632   -0.4810   24.3006 C   0  0  0  0  0  0  0  0  0  0  0  0
   33.2114   -3.3881   26.0867 C   0  0  0  0  0  0  0  0  0  0  0  0
   30.5870   -0.4997   26.7889 C   0  0  0  0  0  0  0  0  0  0  0  0
   32.2653   -2.5120   26.9238 C   0  0  0  0  0  0  0  0  0  0  0  0
   33.0021   -0.2925   25.9378 C   0  0  0  0  0  0  0  0  0  0  0  0
   29.9282    0.2008   25.5641 C   0  0  0  0  0  0  0  0  0  0  0  0
   35.3532   -3.7350   17.5313 O   0  0  0  0  0  0  0  0  0  0  0  0
   34.4125   -3.0573   18.3634 C   0  0  0  0  0  0  0  0  0  0  0  0
   34.2399   -3.8140   19.6885 C   0  0  0  0  0  0  0  0  0  0  0  0
   33.0832   -2.9173   17.6171 C   0  0  0  0  0  0  0  0  0  0  0  0
   33.1469   -3.2037   20.5418 C   0  0  0  0  0  0  0  0  0  0  0  0
   32.0082   -2.2968   18.5086 C   0  0  0  0  0  0  0  0  0  0  0  0
   31.8887   -3.0440   19.8154 C   0  0  0  0  0  0  0  0  0  0  0  0
   33.3880   -2.8288   21.8148 C   0  0  0  0  0  0  0  0  0  0  0  0
   30.7343   -3.5835   20.2356 C   0  0  0  0  0  0  0  0  0  0  0  0
   34.9920   -4.6148   17.3273 H   0  0  0  0  0  0  0  0  0  0  0  0
   30.8145    0.4913   27.9710 C   0  0  0  0  0  0  0  0  0  0  0  0
   30.8218   -0.2162   29.3298 C   0  0  0  0  0  0  0  0  0  0  0  0
   29.7304    1.6038   27.9530 C   0  0  0  0  0  0  0  0  0  0  0  0
   28.4165    1.2110   28.6427 C   0  0  0  0  0  0  0  0  0  0  0  0
   27.3022    0.9828   27.6144 C   0  0  0  0  0  0  0  0  0  0  0  0
   26.5494   -0.3464   27.8098 C   0  0  0  0  0  0  0  0  0  0  0  0
   27.5494   -1.4742   28.0758 C   0  0  0  0  0  0  0  0  0  0  0  0
   25.6751   -0.7052   26.6076 C   0  0  0  0  0  0  0  0  0  0  0  0
 12 13  1  0  0  0
 12 21  1  0  0  0
 13 14  1  0  0  0
 13 15  1  0  0  0
 14 16  1  0  0  0
 15 17  1  0  0  0
 16 18  1  0  0  0
 16 19  2  0  0  0
 17 18  1  0  0  0
 18 20  2  0  0  0
 19  1  1  0  0  0
  1  2  2  0  0  0
  2  3  1  0  0  0
  2  4  1  0  0  0
  3  5  1  0  0  0
  3  6  1  0  0  0
  4  7  1  0  0  0
  5  8  1  0  0  0
  5  9  1  0  0  0
  5 10  1  0  0  0
  6 11  1  0  0  0
  7  9  1  0  0  0
  8 22  1  0  0  0
  8 11  1  0  0  0
 22 24  1  0  0  0
 22 23  1  0  0  0
 24 25  1  0  0  0
 25 26  1  0  0  0
 26 27  1  0  0  0
 27 28  1  0  0  0
 27 29  1  0  0  0
M  END
> <minimizedAffinity>
-7.28279

$$$$
ZINC000001530303


 18 17  0  0  0  0  0  0  0  0999 V2000
   30.3180    1.2535   28.0494 O   0  0  0  0  0  0  0  0  0  0  0  0
   30.0439    0.3778   27.2395 C   0  0  0  0  0  0  0  0  0  0  0  0
   28.7612    0.1599   26.7754 N   0  0  0  0  0  0  0  0  0  0  0  0
   28.6262   -0.6073   26.1219 H   0  0  0  0  0  0  0  0  0  0  0  0
   31.0666   -0.5987   26.6101 C   0  0  0  0  0  0  0  0  0  0  0  0
   30.5815   -0.9929   25.3148 O   0  0  0  0  0  0  0  0  0  0  0  0
   29.6989   -1.3850   25.4388 H   0  0  0  0  0  0  0  0  0  0  0  0
   31.4701   -1.8395   27.4574 C   0  0  0  0  0  0  0  0  0  0  0  0
   32.0744   -2.9047   26.5098 C   0  0  0  0  0  0  0  0  0  0  0  0
   32.5640   -1.4689   28.4803 C   0  0  0  0  0  0  0  0  0  0  0  0
   30.2468   -2.4413   28.1857 C   0  0  0  0  0  0  0  0  0  0  0  0
   29.3059   -3.0100   27.2807 O   0  0  0  0  0  0  0  0  0  0  0  0
   28.8597   -2.2839   26.8133 H   0  0  0  0  0  0  0  0  0  0  0  0
   27.6250    0.9610   27.1780 C   0  0  0  0  0  0  0  0  0  0  0  0
   26.4450    0.1173   27.6447 C   0  0  0  0  0  0  0  0  0  0  0  0
   25.9467   -0.8537   26.5836 C   0  0  0  0  0  0  0  0  0  0  0  0
   24.5415   -0.6804   26.4347 O   0  0  0  0  0  0  0  0  0  0  0  0
   24.2448   -1.3480   25.7920 H   0  0  0  0  0  0  0  0  0  0  0  0
  1  2  2  0  0  0
  2  3  1  0  0  0
  2  5  1  0  0  0
  3 14  1  0  0  0
  3  4  1  0  0  0
  5  6  1  0  0  0
  5  8  1  0  0  0
 14 15  1  0  0  0
  6  7  1  0  0  0
  8 11  1  0  0  0
  8  9  1  0  0  0
  8 10  1  0  0  0
 15 16  1  0  0  0
 11 12  1  0  0  0
 16 17  1  0  0  0
 12 13  1  0  0  0
 17 18  1  0  0  0
M  END
> <minimizedAffinity>
-5.62824

$$$$
ZINC000003800706


 24 26  0  0  0  0  0  0  0  0999 V2000
   30.2856   -1.1859   27.6052 C   0  0  0  0  0  0  0  0  0  0  0  0
   30.0277    0.1113   26.9830 O   0  0  0  0  0  0  0  0  0  0  0  0
   31.1905   -1.8419   26.5908 C   0  0  0  0  0  0  0  0  0  0  0  0
   30.1852    0.0032   25.5519 C   0  0  0  0  0  0  0  0  0  0  0  0
   31.1122   -1.1426   25.3907 C   0  0  0  0  0  0  0  0  0  0  0  0
   32.0362   -2.9374   26.7117 C   0  0  0  0  0  0  0  0  0  0  0  0
   31.8310   -1.5326   24.2710 C   0  0  0  0  0  0  0  0  0  0  0  0
   32.7758   -3.3415   25.5955 C   0  0  0  0  0  0  0  0  0  0  0  0
   32.6715   -2.6463   24.3766 C   0  0  0  0  0  0  0  0  0  0  0  0
   25.2711   -3.7331   28.4666 F   0  0  0  0  0  0  0  0  0  0  0  0
   26.4529   -3.1383   28.2591 C   0  0  0  0  0  0  0  0  0  0  0  0
   26.5010   -1.7731   28.0197 C   0  0  0  0  0  0  0  0  0  0  0  0
   27.6158   -3.8948   28.2942 C   0  0  0  0  0  0  0  0  0  0  0  0
   27.7354   -1.1556   27.8053 C   0  0  0  0  0  0  0  0  0  0  0  0
   28.8518   -3.2772   28.0802 C   0  0  0  0  0  0  0  0  0  0  0  0
   28.9363   -1.8967   27.8161 C   0  0  0  0  0  0  0  0  0  0  0  0
   33.4359   -3.0766   23.2421 C   0  0  0  0  0  0  0  0  0  0  0  0
   34.0535   -3.4263   22.3237 N   0  0  0  0  0  0  0  0  0  0  0  0
   30.9515   -0.9377   28.9778 C   0  0  0  0  0  0  0  0  0  0  0  0
   31.0459    0.5443   29.3802 C   0  0  0  0  0  0  0  0  0  0  0  0
   32.5102    1.0050   29.4241 C   0  0  0  0  0  0  0  0  0  0  0  0
   33.3457    0.3679   28.3924 N   0  0  0  0  0  0  0  0  0  0  0  0
   34.6881    0.0498   28.8826 C   0  0  0  0  0  0  0  0  0  0  0  0
   33.4443    1.2407   27.2187 C   0  0  0  0  0  0  0  0  0  0  0  0
 10 11  1  0  0  0
 11 12  2  0  0  0
 11 13  1  0  0  0
 12 14  1  0  0  0
 13 15  2  0  0  0
 14 16  2  0  0  0
 15 16  1  0  0  0
 16  1  1  0  0  0
  1  2  1  0  0  0
  1  3  1  0  0  0
  1 19  1  0  0  0
  2  4  1  0  0  0
  3  5  2  0  0  0
  3  6  1  0  0  0
 19 20  1  0  0  0
  4  5  1  0  0  0
  5  7  1  0  0  0
  6  8  2  0  0  0
 20 21  1  0  0  0
  7  9  2  0  0  0
  8  9  1  0  0  0
 21 22  1  0  0  0
  9 17  1  0  0  0
 22 23  1  0  0  0
 22 24  1  0  0  0
 17 18  3  0  0  0
M  END
> <minimizedAffinity>
-8.71726

$$$$
ZINC000003812851


 28 29  0  0  0  0  0  0  0  0999 V2000
   32.3660   -0.0857   25.3829 N   0  0  0  0  0  0  0  0  0  0  0  0
   33.0771   -0.0399   24.6517 H   0  0  0  0  0  0  0  0  0  0  0  0
   32.7814    0.8190   26.4853 C   0  0  0  0  0  0  0  0  0  0  0  0
   33.1637    2.1706   25.8864 C   0  0  0  0  0  0  0  0  0  0  0  0
   33.3724    0.8095   29.4594 C   0  0  0  0  0  0  0  0  0  0  0  0
   32.0305    0.9467   28.8786 N   0  0  0  0  0  0  0  0  0  0  0  0
   33.1953    1.2409   30.9148 C   0  0  0  0  0  0  0  0  0  0  0  0
   31.6762    1.0504   27.5452 C   0  0  0  0  0  0  0  0  0  0  0  0
   31.0297    1.1422   29.9143 C   0  0  0  0  0  0  0  0  0  0  0  0
   31.7510    0.8558   31.2217 C   0  0  0  0  0  0  0  0  0  0  0  0
   30.5161    1.3176   27.2224 O   0  0  0  0  0  0  0  0  0  0  0  0
   33.2187   -1.6572   29.3606 O   0  0  0  0  0  0  0  0  0  0  0  0
   33.8860   -0.6324   29.3961 C   0  0  0  0  0  0  0  0  0  0  0  0
   35.2328   -0.6842   29.3231 O   0  0  0  0  0  0  0  0  0  0  0  0
   35.4382   -1.6099   29.0627 H   0  0  0  0  0  0  0  0  0  0  0  0
   32.1774   -1.5074   25.7708 C   0  0  0  0  0  0  0  0  0  0  0  0
   32.7251   -2.4622   24.7083 C   0  0  0  0  0  0  0  0  0  0  0  0
   33.3901   -3.4702   24.9074 O   0  0  0  0  0  0  0  0  0  0  0  0
   32.3078   -2.1302   23.4691 O   0  0  0  0  0  0  0  0  0  0  0  0
   32.3919   -2.9526   22.9301 H   0  0  0  0  0  0  0  0  0  0  0  0
   30.6892   -1.8196   25.9795 C   0  0  0  0  0  0  0  0  0  0  0  0
   30.4014   -2.4087   27.3632 C   0  0  0  0  0  0  0  0  0  0  0  0
   28.9220   -2.4078   27.6628 C   0  0  0  0  0  0  0  0  0  0  0  0
   28.2579   -3.6043   27.9638 C   0  0  0  0  0  0  0  0  0  0  0  0
   28.1997   -1.2072   27.6730 C   0  0  0  0  0  0  0  0  0  0  0  0
   26.8941   -3.6005   28.2601 C   0  0  0  0  0  0  0  0  0  0  0  0
   26.8360   -1.2054   27.9694 C   0  0  0  0  0  0  0  0  0  0  0  0
   26.1836   -2.4015   28.2624 C   0  0  0  0  0  0  0  0  0  0  0  0
 12 13  2  0  0  0
 13 14  1  0  0  0
 13  5  1  0  0  0
 14 15  1  0  0  0
  5  6  1  0  0  0
  5  7  1  0  0  0
  6  8  1  0  0  0
  6  9  1  0  0  0
  7 10  1  0  0  0
  8 11  2  0  0  0
  8  3  1  0  0  0
  9 10  1  0  0  0
  3  1  1  0  0  0
  3  4  1  0  0  0
  1 16  1  0  0  0
  1  2  1  0  0  0
 16 17  1  0  0  0
 16 21  1  0  0  0
 17 18  2  0  0  0
 17 19  1  0  0  0
 21 22  1  0  0  0
 19 20  1  0  0  0
 22 23  1  0  0  0
 23 24  2  0  0  0
 23 25  1  0  0  0
 24 26  1  0  0  0
 25 27  2  0  0  0
 26 28  2  0  0  0
 27 28  1  0  0  0
M  END
> <minimizedAffinity>
-7.88551

$$$$
ZINC000003807917


 22 25  0  0  0  0  0  0  0  0999 V2000
   35.2937    0.0629   28.6312 O   0  0  0  0  0  0  0  0  0  0  0  0
   34.1565    0.5044   28.5318 C   0  0  0  0  0  0  0  0  0  0  0  0
   32.9960   -0.2323   27.8873 C   0  0  0  0  0  0  0  0  0  0  0  0
   33.7376    1.8836   29.0135 C   0  0  0  0  0  0  0  0  0  0  0  0
   31.8451    0.4750   28.6269 C   0  0  0  0  0  0  0  0  0  0  0  0
   32.8848   -1.7237   28.1854 C   0  0  0  0  0  0  0  0  0  0  0  0
   33.0878    0.0377   26.3743 C   0  0  0  0  0  0  0  0  0  0  0  0
   32.2503    1.9451   28.6345 C   0  0  0  0  0  0  0  0  0  0  0  0
   30.4736    0.0710   28.0811 C   0  0  0  0  0  0  0  0  0  0  0  0
   31.5272   -2.2737   27.7137 C   0  0  0  0  0  0  0  0  0  0  0  0
   30.2994   -1.4708   28.2312 C   0  0  0  0  0  0  0  0  0  0  0  0
   29.3486    0.8057   28.8243 C   0  0  0  0  0  0  0  0  0  0  0  0
   28.9149   -1.9567   27.6423 C   0  0  0  0  0  0  0  0  0  0  0  0
   27.9983    0.1960   28.6172 C   0  0  0  0  0  0  0  0  0  0  0  0
   27.7795   -1.0188   28.0824 C   0  0  0  0  0  0  0  0  0  0  0  0
   28.6311   -3.3910   28.1799 C   0  0  0  0  0  0  0  0  0  0  0  0
   28.9392   -1.9842   26.0951 C   0  0  0  0  0  0  0  0  0  0  0  0
   26.3646   -1.5237   27.8949 C   0  0  0  0  0  0  0  0  0  0  0  0
   27.2120   -3.8939   27.9186 C   0  0  0  0  0  0  0  0  0  0  0  0
   26.1711   -2.9267   28.4721 C   0  0  0  0  0  0  0  0  0  0  0  0
   24.8758   -3.4194   28.1360 O   0  0  0  0  0  0  0  0  0  0  0  0
   24.2231   -2.8182   28.5344 H   0  0  0  0  0  0  0  0  0  0  0  0
  1  2  2  0  0  0
  2  3  1  0  0  0
  2  4  1  0  0  0
  3  5  1  0  0  0
  3  6  1  0  0  0
  3  7  1  0  0  0
  4  8  1  0  0  0
  5  9  1  0  0  0
  5  8  1  0  0  0
  6 10  1  0  0  0
  9 11  1  0  0  0
  9 12  1  0  0  0
 10 11  1  0  0  0
 11 13  1  0  0  0
 12 14  1  0  0  0
 13 15  1  0  0  0
 13 16  1  0  0  0
 13 17  1  0  0  0
 14 15  2  0  0  0
 15 18  1  0  0  0
 16 19  1  0  0  0
 18 20  1  0  0  0
 19 20  1  0  0  0
 20 21  1  0  0  0
 21 22  1  0  0  0
M  END
> <minimizedAffinity>
-9.95944

$$$$
ZINC000000074836


 14 14  0  0  0  0  0  0  0  0999 V2000
   29.9096   -3.0457   27.0860 O   0  0  0  0  0  0  0  0  0  0  0  0
   29.1540   -1.8403   27.3070 C   0  0  0  0  0  0  0  0  0  0  0  0
   30.1818   -3.3655   27.9642 H   0  0  0  0  0  0  0  0  0  0  0  0
   29.8777   -0.9394   28.2998 C   0  0  0  0  0  0  0  0  0  0  0  0
   31.0244   -1.4153   28.9636 C   0  0  0  0  0  0  0  0  0  0  0  0
   29.5012    0.3941   28.5240 C   0  0  0  0  0  0  0  0  0  0  0  0
   31.7346   -0.6075   29.8547 C   0  0  0  0  0  0  0  0  0  0  0  0
   30.2113    1.2030   29.4168 C   0  0  0  0  0  0  0  0  0  0  0  0
   31.3236    0.7009   30.0860 C   0  0  0  0  0  0  0  0  0  0  0  0
   27.6786   -2.2526   27.6419 C   0  0  0  0  0  0  0  0  0  0  0  0
   27.5501   -3.7554   27.9349 C   0  0  0  0  0  0  0  0  0  0  0  0
   26.7544   -1.9957   26.5102 N   0  0  0  0  0  0  0  0  0  0  0  0
   25.9344   -0.8099   26.7163 C   0  0  0  0  0  0  0  0  0  0  0  0
   27.3322   -1.8528   25.6755 H   0  0  0  0  0  0  0  0  0  0  0  0
  1  2  1  0  0  0
  1  3  1  0  0  0
  2  4  1  0  0  0
  2 10  1  0  0  0
  4  5  2  0  0  0
  4  6  1  0  0  0
 10 12  1  0  0  0
 10 11  1  0  0  0
  5  7  1  0  0  0
  6  8  2  0  0  0
 12 13  1  0  0  0
 12 14  1  0  0  0
  7  9  2  0  0  0
  8  9  1  0  0  0
M  END
> <minimizedAffinity>
-5.92732

$$$$
ZINC000003881958


 26 30  0  0  0  0  0  0  0  0999 V2000
   25.0064   -2.3901   27.8210 O   0  0  0  0  0  0  0  0  0  0  0  0
   25.0110   -3.6709   28.3580 N   0  0  0  0  0  0  0  0  0  0  0  0
   26.2882   -1.9280   27.7139 C   0  0  0  0  0  0  0  0  0  0  0  0
   26.2959   -3.9591   28.5773 C   0  0  0  0  0  0  0  0  0  0  0  0
   27.1342   -2.9037   28.1930 C   0  0  0  0  0  0  0  0  0  0  0  0
   26.7074   -0.6845   27.1946 C   0  0  0  0  0  0  0  0  0  0  0  0
   28.6001   -2.7075   28.2681 C   0  0  0  0  0  0  0  0  0  0  0  0
   28.0278   -0.4924   26.9830 C   0  0  0  0  0  0  0  0  0  0  0  0
   29.1155   -1.5648   27.2987 C   0  0  0  0  0  0  0  0  0  0  0  0
   28.5002    0.7890   26.3402 C   0  0  0  0  0  0  0  0  0  0  0  0
   30.3568   -0.8700   27.9791 C   0  0  0  0  0  0  0  0  0  0  0  0
   29.4915   -2.2288   25.9509 C   0  0  0  0  0  0  0  0  0  0  0  0
   29.6714    1.4071   27.0909 C   0  0  0  0  0  0  0  0  0  0  0  0
   30.8321    0.4126   27.2279 C   0  0  0  0  0  0  0  0  0  0  0  0
   31.5349   -1.8422   28.2644 C   0  0  0  0  0  0  0  0  0  0  0  0
   32.0057    1.0342   27.9972 C   0  0  0  0  0  0  0  0  0  0  0  0
   32.7416   -1.1593   28.9341 C   0  0  0  0  0  0  0  0  0  0  0  0
   33.2093    0.0775   28.1451 C   0  0  0  0  0  0  0  0  0  0  0  0
   32.6337    2.3195   27.4609 C   0  0  0  0  0  0  0  0  0  0  0  0
   34.2371    1.0209   28.8458 C   0  0  0  0  0  0  0  0  0  0  0  0
   33.7879   -0.4027   26.7808 C   0  0  0  0  0  0  0  0  0  0  0  0
   34.0404    2.3672   28.0940 C   0  0  0  0  0  0  0  0  0  0  0  0
   35.5713    0.5498   28.7243 O   0  0  0  0  0  0  0  0  0  0  0  0
   35.8855    0.7361   27.8259 H   0  0  0  0  0  0  0  0  0  0  0  0
   33.9788    1.2159   30.2885 C   0  0  0  0  0  0  0  0  0  0  0  0
   33.7530    1.3758   31.4577 C   0  0  0  0  0  0  0  0  0  0  0  0
  1  2  1  0  0  0
  1  3  1  0  0  0
  2  4  2  0  0  0
  3  5  2  0  0  0
  3  6  1  0  0  0
  4  5  1  0  0  0
  5  7  1  0  0  0
  6  8  2  0  0  0
  7  9  1  0  0  0
  8 10  1  0  0  0
  8  9  1  0  0  0
  9 11  1  0  0  0
  9 12  1  0  0  0
 10 13  1  0  0  0
 11 14  1  0  0  0
 11 15  1  0  0  0
 13 14  1  0  0  0
 14 16  1  0  0  0
 15 17  1  0  0  0
 16 18  1  0  0  0
 16 19  1  0  0  0
 17 18  1  0  0  0
 18 20  1  0  0  0
 18 21  1  0  0  0
 19 22  1  0  0  0
 20 23  1  0  0  0
 20 25  1  0  0  0
 20 22  1  0  0  0
 23 24  1  0  0  0
 25 26  3  0  0  0
M  END
> <minimizedAffinity>
-7.42722

$$$$
ZINC000000113415


 23 23  0  0  0  0  0  0  0  0999 V2000
   28.3684   -1.6656   26.7356 C   0  0  0  0  0  0  0  0  0  0  0  0
   29.1196   -2.5862   27.4757 C   0  0  0  0  0  0  0  0  0  0  0  0
   28.9826   -0.4809   26.3094 C   0  0  0  0  0  0  0  0  0  0  0  0
   30.4533   -2.3170   27.7904 C   0  0  0  0  0  0  0  0  0  0  0  0
   30.3201   -0.2152   26.6261 C   0  0  0  0  0  0  0  0  0  0  0  0
   31.0611   -1.1324   27.3704 C   0  0  0  0  0  0  0  0  0  0  0  0
   32.3690   -0.9977   27.7449 O   0  0  0  0  0  0  0  0  0  0  0  0
   32.6796   -1.2216   29.1262 C   0  0  0  0  0  0  0  0  0  0  0  0
   32.0965   -0.0487   29.9272 C   0  0  0  0  0  0  0  0  0  0  0  0
   32.0770   -0.4077   31.3161 O   0  0  0  0  0  0  0  0  0  0  0  0
   31.6082   -1.2606   31.3688 H   0  0  0  0  0  0  0  0  0  0  0  0
   32.9396    1.2269   29.7159 C   0  0  0  0  0  0  0  0  0  0  0  0
   32.5596    1.9434   28.4927 N   0  0  0  0  0  0  0  0  0  0  0  0
   31.9102    1.3941   27.9335 H   0  0  0  0  0  0  0  0  0  0  0  0
   33.6990    2.3934   27.6925 C   0  0  0  0  0  0  0  0  0  0  0  0
   33.4536    1.9621   26.2452 C   0  0  0  0  0  0  0  0  0  0  0  0
   35.0221    1.8084   28.1888 C   0  0  0  0  0  0  0  0  0  0  0  0
   26.9256   -1.9546   26.3925 C   0  0  0  0  0  0  0  0  0  0  0  0
   26.0249   -0.8091   28.3216 O   0  0  0  0  0  0  0  0  0  0  0  0
   25.9328   -1.0742   27.1272 C   0  0  0  0  0  0  0  0  0  0  0  0
   24.8730   -0.6248   26.3945 N   0  0  0  0  0  0  0  0  0  0  0  0
   24.1884   -0.0433   26.8587 H   0  0  0  0  0  0  0  0  0  0  0  0
   24.7971   -0.7726   25.3976 H   0  0  0  0  0  0  0  0  0  0  0  0
 19 20  2  0  0  0
 20 21  1  0  0  0
 20 18  1  0  0  0
 21 22  1  0  0  0
 21 23  1  0  0  0
 18  1  1  0  0  0
  1  2  2  0  0  0
  1  3  1  0  0  0
  2  4  1  0  0  0
  3  5  2  0  0  0
  4  6  2  0  0  0
  5  6  1  0  0  0
  6  7  1  0  0  0
  7  8  1  0  0  0
  8  9  1  0  0  0
  9 10  1  0  0  0
  9 12  1  0  0  0
 10 11  1  0  0  0
 12 13  1  0  0  0
 13 15  1  0  0  0
 13 14  1  0  0  0
 15 16  1  0  0  0
 15 17  1  0  0  0
M  END
> <minimizedAffinity>
-6.90495

$$$$
ZINC000003792789


 23 23  0  0  0  0  0  0  0  0999 V2000
   31.9404   -2.6093   22.9130 C   0  0  0  0  0  0  0  0  0  0  0  0
   32.7303   -2.6477   24.0078 C   0  0  0  0  0  0  0  0  0  0  0  0
   34.0251   -3.4153   24.1076 C   0  0  0  0  0  0  0  0  0  0  0  0
   32.8973   -2.7251   20.6594 C   0  0  0  0  0  0  0  0  0  0  0  0
   32.1563   -3.2720   21.6400 C   0  0  0  0  0  0  0  0  0  0  0  0
   32.2944   -3.3259   18.3232 C   0  0  0  0  0  0  0  0  0  0  0  0
   33.1711   -3.3132   19.3492 C   0  0  0  0  0  0  0  0  0  0  0  0
   34.5278   -3.9466   19.1382 C   0  0  0  0  0  0  0  0  0  0  0  0
   30.5225   -1.7474   17.7852 O   0  0  0  0  0  0  0  0  0  0  0  0
   30.9249   -2.7788   18.2827 C   0  0  0  0  0  0  0  0  0  0  0  0
   30.0893   -3.6225   18.9148 O   0  0  0  0  0  0  0  0  0  0  0  0
   29.2180   -3.1809   18.8369 H   0  0  0  0  0  0  0  0  0  0  0  0
   32.3069   -1.8931   25.1903 C   0  0  0  0  0  0  0  0  0  0  0  0
   31.3344   -0.9665   25.2466 C   0  0  0  0  0  0  0  0  0  0  0  0
   30.9632   -0.2716   26.4771 C   0  0  0  0  0  0  0  0  0  0  0  0
   31.6751    0.7863   26.9376 C   0  0  0  0  0  0  0  0  0  0  0  0
   29.7235   -0.8271   27.2113 C   0  0  0  0  0  0  0  0  0  0  0  0
   31.3548    1.4754   28.2463 C   0  0  0  0  0  0  0  0  0  0  0  0
   32.8425    1.4193   26.2175 C   0  0  0  0  0  0  0  0  0  0  0  0
   29.2353    0.1540   28.3113 C   0  0  0  0  0  0  0  0  0  0  0  0
   28.5263   -1.0491   26.2579 C   0  0  0  0  0  0  0  0  0  0  0  0
   30.0817   -2.1827   27.8607 C   0  0  0  0  0  0  0  0  0  0  0  0
   30.3832    0.7127   29.1371 C   0  0  0  0  0  0  0  0  0  0  0  0
  9 10  2  0  0  0
 10 11  1  0  0  0
 10  6  1  0  0  0
 11 12  1  0  0  0
  6  7  2  0  0  0
  7  4  1  0  0  0
  7  8  1  0  0  0
  4  5  2  0  0  0
  5  1  1  0  0  0
  1  2  2  0  0  0
  2 13  1  0  0  0
  2  3  1  0  0  0
 13 14  2  0  0  0
 14 15  1  0  0  0
 15 16  2  0  0  0
 15 17  1  0  0  0
 16 18  1  0  0  0
 16 19  1  0  0  0
 17 20  1  0  0  0
 17 21  1  0  0  0
 17 22  1  0  0  0
 18 23  1  0  0  0
 20 23  1  0  0  0
M  END
> <minimizedAffinity>
-8.20132

$$$$
ZINC000003813078


 28 29  0  0  0  0  0  0  0  0999 V2000
   32.4116   -3.1513   25.0630 C   0  0  0  0  0  0  0  0  0  0  0  0
   32.1700   -2.7191   26.3078 C   0  0  0  0  0  0  0  0  0  0  0  0
   33.1861   -2.2866   27.1439 O   0  0  0  0  0  0  0  0  0  0  0  0
   30.8099   -2.5584   26.9044 C   0  0  0  0  0  0  0  0  0  0  0  0
   32.5530   -1.7918   28.3359 C   0  0  0  0  0  0  0  0  0  0  0  0
   31.0869   -1.5516   27.9931 C   0  0  0  0  0  0  0  0  0  0  0  0
   33.1457   -0.4338   28.7157 C   0  0  0  0  0  0  0  0  0  0  0  0
   31.0602   -0.0820   27.5467 C   0  0  0  0  0  0  0  0  0  0  0  0
   31.9973    0.5660   28.5747 C   0  0  0  0  0  0  0  0  0  0  0  0
   32.4880    1.8247   28.1439 O   0  0  0  0  0  0  0  0  0  0  0  0
   31.7247    2.3516   27.8507 H   0  0  0  0  0  0  0  0  0  0  0  0
   29.6678    0.4988   27.5582 C   0  0  0  0  0  0  0  0  0  0  0  0
   28.6238   -0.0969   28.1576 C   0  0  0  0  0  0  0  0  0  0  0  0
   27.2341    0.4691   28.2069 C   0  0  0  0  0  0  0  0  0  0  0  0
   27.1887    1.5876   27.3308 O   0  0  0  0  0  0  0  0  0  0  0  0
   27.9035    2.1891   27.5993 H   0  0  0  0  0  0  0  0  0  0  0  0
   26.1459   -0.5380   27.8108 C   0  0  0  0  0  0  0  0  0  0  0  0
   26.3658   -1.2158   26.4510 C   0  0  0  0  0  0  0  0  0  0  0  0
   27.1012   -2.5491   26.6143 C   0  0  0  0  0  0  0  0  0  0  0  0
   26.6961   -3.3138   27.8764 C   0  0  0  0  0  0  0  0  0  0  0  0
   27.8468   -4.0655   28.5269 C   0  0  0  0  0  0  0  0  0  0  0  0
   33.7764   -3.2765   24.4466 C   0  0  0  0  0  0  0  0  0  0  0  0
   33.7375   -3.4471   22.9259 C   0  0  0  0  0  0  0  0  0  0  0  0
   32.6073   -2.6646   22.2567 C   0  0  0  0  0  0  0  0  0  0  0  0
   32.9652   -3.4895   19.9791 O   0  0  0  0  0  0  0  0  0  0  0  0
   32.2337   -3.2580   20.9255 C   0  0  0  0  0  0  0  0  0  0  0  0
   30.9182   -3.5445   20.8580 O   0  0  0  0  0  0  0  0  0  0  0  0
   30.8059   -3.9179   19.9586 H   0  0  0  0  0  0  0  0  0  0  0  0
 25 26  2  0  0  0
 26 27  1  0  0  0
 26 24  1  0  0  0
 27 28  1  0  0  0
 24 23  1  0  0  0
 23 22  1  0  0  0
 22  1  1  0  0  0
  1  2  2  0  0  0
  2  3  1  0  0  0
  2  4  1  0  0  0
  3  5  1  0  0  0
  4  6  1  0  0  0
  5  7  1  0  0  0
  5  6  1  0  0  0
  6  8  1  0  0  0
  7  9  1  0  0  0
  8 12  1  0  0  0
  8  9  1  0  0  0
  9 10  1  0  0  0
 12 13  2  0  0  0
 10 11  1  0  0  0
 13 14  1  0  0  0
 14 15  1  0  0  0
 14 17  1  0  0  0
 15 16  1  0  0  0
 17 18  1  0  0  0
 18 19  1  0  0  0
 19 20  1  0  0  0
 20 21  1  0  0  0
M  END
> <minimizedAffinity>
-7.51289

$$$$
ZINC000000901736


 12 12  0  0  0  0  0  0  0  0999 V2000
   27.2474   -1.4854   26.5822 C   0  0  0  0  0  0  0  0  0  0  0  0
   28.3442   -0.4915   26.6688 N   0  0  0  0  0  0  0  0  0  0  0  0
   27.8561   -2.7787   27.1308 C   0  0  0  0  0  0  0  0  0  0  0  0
   29.5591   -1.2533   26.3704 C   0  0  0  0  0  0  0  0  0  0  0  0
   29.3525   -2.4947   27.2312 C   0  0  0  0  0  0  0  0  0  0  0  0
   29.6835   -2.2008   28.5897 O   0  0  0  0  0  0  0  0  0  0  0  0
   28.1860    0.2607   25.9983 H   0  0  0  0  0  0  0  0  0  0  0  0
   29.2623   -1.3405   28.7825 H   0  0  0  0  0  0  0  0  0  0  0  0
   25.8692   -0.9683   28.5543 O   0  0  0  0  0  0  0  0  0  0  0  0
   26.0110   -1.0170   27.3429 C   0  0  0  0  0  0  0  0  0  0  0  0
   24.9740   -0.7088   26.5311 O   0  0  0  0  0  0  0  0  0  0  0  0
   24.2710   -0.4222   27.1497 H   0  0  0  0  0  0  0  0  0  0  0  0
  9 10  2  0  0  0
 10 11  1  0  0  0
 10  1  1  0  0  0
 11 12  1  0  0  0
  1  2  1  0  0  0
  1  3  1  0  0  0
  2  4  1  0  0  0
  2  7  1  0  0  0
  3  5  1  0  0  0
  4  5  1  0  0  0
  5  6  1  0  0  0
  6  8  1  0  0  0
M  END
> <minimizedAffinity>
-4.83068

$$$$
ZINC000000105196


 15 15  0  0  0  0  0  0  0  0999 V2000
   27.6855   -2.8045   27.9492 C   0  0  0  0  0  0  0  0  0  0  0  0
   27.6851   -4.0649   27.1693 N   0  0  0  0  0  0  0  0  0  0  0  0
   27.1337   -3.9227   26.3210 H   0  0  0  0  0  0  0  0  0  0  0  0
   28.6381   -4.2651   26.8647 H   0  0  0  0  0  0  0  0  0  0  0  0
   25.8481   -1.2041   28.3085 O   0  0  0  0  0  0  0  0  0  0  0  0
   26.2444   -2.3539   28.1881 C   0  0  0  0  0  0  0  0  0  0  0  0
   25.3857   -3.3866   28.3178 O   0  0  0  0  0  0  0  0  0  0  0  0
   24.5164   -2.9510   28.4450 H   0  0  0  0  0  0  0  0  0  0  0  0
   28.4235   -1.6559   27.2397 C   0  0  0  0  0  0  0  0  0  0  0  0
   29.4155   -0.9321   28.1202 C   0  0  0  0  0  0  0  0  0  0  0  0
   29.2050    0.4070   28.4771 C   0  0  0  0  0  0  0  0  0  0  0  0
   30.5565   -1.5913   28.5978 C   0  0  0  0  0  0  0  0  0  0  0  0
   30.1160    1.0713   29.2998 C   0  0  0  0  0  0  0  0  0  0  0  0
   31.4662   -0.9248   29.4200 C   0  0  0  0  0  0  0  0  0  0  0  0
   31.2454    0.4054   29.7716 C   0  0  0  0  0  0  0  0  0  0  0  0
  5  6  2  0  0  0
  6  7  1  0  0  0
  6  1  1  0  0  0
  7  8  1  0  0  0
  1  2  1  0  0  0
  1  9  1  0  0  0
  2  3  1  0  0  0
  2  4  1  0  0  0
  9 10  1  0  0  0
 10 11  2  0  0  0
 10 12  1  0  0  0
 11 13  1  0  0  0
 12 14  2  0  0  0
 13 15  2  0  0  0
 14 15  1  0  0  0
M  END
> <minimizedAffinity>
-6.23599

$$$$
ZINC000000895099


 11 10  0  0  0  0  0  0  0  0999 V2000
   26.6329   -1.3116   26.8919 C   0  0  0  0  0  0  0  0  0  0  0  0
   25.2578   -0.7876   26.6789 N   0  0  0  0  0  0  0  0  0  0  0  0
   24.7161   -1.0098   27.5187 H   0  0  0  0  0  0  0  0  0  0  0  0
   24.8147   -1.3517   25.9522 H   0  0  0  0  0  0  0  0  0  0  0  0
   27.3143   -3.6830   26.9629 O   0  0  0  0  0  0  0  0  0  0  0  0
   26.5892   -2.7802   27.3488 C   0  0  0  0  0  0  0  0  0  0  0  0
   25.6470   -3.0278   28.2880 O   0  0  0  0  0  0  0  0  0  0  0  0
   25.7583   -3.9827   28.4802 H   0  0  0  0  0  0  0  0  0  0  0  0
   27.4094   -0.4042   27.8717 C   0  0  0  0  0  0  0  0  0  0  0  0
   27.3369    1.0694   27.4584 C   0  0  0  0  0  0  0  0  0  0  0  0
   28.8723   -0.8158   28.0691 C   0  0  0  0  0  0  0  0  0  0  0  0
  5  6  2  0  0  0
  6  7  1  0  0  0
  6  1  1  0  0  0
  7  8  1  0  0  0
  1  2  1  0  0  0
  1  9  1  0  0  0
  2  3  1  0  0  0
  2  4  1  0  0  0
  9 10  1  0  0  0
  9 11  1  0  0  0
M  END
> <minimizedAffinity>
-4.79092

$$$$
ZINC000000895103


 12 11  0  0  0  0  0  0  0  0999 V2000
   27.0185   -1.8453   26.4040 C   0  0  0  0  0  0  0  0  0  0  0  0
   28.4175   -1.3301   26.4666 N   0  0  0  0  0  0  0  0  0  0  0  0
   28.4779   -0.4763   25.9132 H   0  0  0  0  0  0  0  0  0  0  0  0
   28.6108   -1.0471   27.4287 H   0  0  0  0  0  0  0  0  0  0  0  0
   26.3461    0.0902   27.7601 O   0  0  0  0  0  0  0  0  0  0  0  0
   26.0758   -0.7607   26.9255 C   0  0  0  0  0  0  0  0  0  0  0  0
   24.8504   -0.8025   26.3673 O   0  0  0  0  0  0  0  0  0  0  0  0
   24.3718   -0.0482   26.7718 H   0  0  0  0  0  0  0  0  0  0  0  0
   26.8581   -3.1369   27.2387 C   0  0  0  0  0  0  0  0  0  0  0  0
   25.7546   -2.9914   28.1438 O   0  0  0  0  0  0  0  0  0  0  0  0
   28.0838   -3.4643   28.0871 C   0  0  0  0  0  0  0  0  0  0  0  0
   25.5053   -3.8800   28.4476 H   0  0  0  0  0  0  0  0  0  0  0  0
  5  6  2  0  0  0
  6  7  1  0  0  0
  6  1  1  0  0  0
  7  8  1  0  0  0
  1  2  1  0  0  0
  1  9  1  0  0  0
  2  3  1  0  0  0
  2  4  1  0  0  0
  9 10  1  0  0  0
  9 11  1  0  0  0
 10 12  1  0  0  0
M  END
> <minimizedAffinity>
-4.62609

$$$$
ZINC000000895457


 12 12  0  0  0  0  0  0  0  0999 V2000
   27.2368   -1.5670   26.9899 C   0  0  0  0  0  0  0  0  0  0  0  0
   26.6306   -2.8338   27.4443 N   0  0  0  0  0  0  0  0  0  0  0  0
   28.4284   -1.4300   27.9234 C   0  0  0  0  0  0  0  0  0  0  0  0
   27.7427   -3.7494   27.7011 C   0  0  0  0  0  0  0  0  0  0  0  0
   28.9434   -2.8585   28.0461 C   0  0  0  0  0  0  0  0  0  0  0  0
   30.0137   -3.0678   27.1259 O   0  0  0  0  0  0  0  0  0  0  0  0
   25.9803   -3.1929   26.7464 H   0  0  0  0  0  0  0  0  0  0  0  0
   29.6768   -2.9308   26.2248 H   0  0  0  0  0  0  0  0  0  0  0  0
   26.4916    0.7156   27.5113 O   0  0  0  0  0  0  0  0  0  0  0  0
   26.2560   -0.4073   27.0939 C   0  0  0  0  0  0  0  0  0  0  0  0
   25.0355   -0.7011   26.5908 O   0  0  0  0  0  0  0  0  0  0  0  0
   24.5190    0.1172   26.7421 H   0  0  0  0  0  0  0  0  0  0  0  0
  9 10  2  0  0  0
 10 11  1  0  0  0
 10  1  1  0  0  0
 11 12  1  0  0  0
  1  2  1  0  0  0
  1  3  1  0  0  0
  2  4  1  0  0  0
  2  7  1  0  0  0
  3  5  1  0  0  0
  4  5  1  0  0  0
  5  6  1  0  0  0
  6  8  1  0  0  0
M  END
> <minimizedAffinity>
-4.96678

$$$$
ZINC000001482164


 12 12  0  0  0  0  0  0  0  0999 V2000
   30.4521   -3.1067   26.9691 O   0  0  0  0  0  0  0  0  0  0  0  0
   29.9143   -1.8253   27.2858 C   0  0  0  0  0  0  0  0  0  0  0  0
   30.0761   -0.8596   26.0905 C   0  0  0  0  0  0  0  0  0  0  0  0
   28.4460   -1.9986   27.6823 C   0  0  0  0  0  0  0  0  0  0  0  0
   29.4011    0.4863   26.4116 C   0  0  0  0  0  0  0  0  0  0  0  0
   27.7803   -0.6554   27.9925 C   0  0  0  0  0  0  0  0  0  0  0  0
   27.9359    0.3082   26.8110 C   0  0  0  0  0  0  0  0  0  0  0  0
   26.3059   -0.8506   28.3400 C   0  0  0  0  0  0  0  0  0  0  0  0
   29.9785   -3.4448   26.1900 H   0  0  0  0  0  0  0  0  0  0  0  0
   31.5571   -0.7242   25.6248 C   0  0  0  0  0  0  0  0  0  0  0  0
   32.2317    0.5827   26.0508 C   0  0  0  0  0  0  0  0  0  0  0  0
   31.6933   -0.8979   24.1072 C   0  0  0  0  0  0  0  0  0  0  0  0
  1  2  1  0  0  0
  1  9  1  0  0  0
  2  3  1  0  0  0
  2  4  1  0  0  0
  3 10  1  0  0  0
  3  5  1  0  0  0
  4  6  1  0  0  0
 10 11  1  0  0  0
 10 12  1  0  0  0
  5  7  1  0  0  0
  6  8  1  0  0  0
  6  7  1  0  0  0
M  END
> <minimizedAffinity>
-6.01519

$$$$
ZINC000001532525


 19 18  0  0  0  0  0  0  0  0999 V2000
   28.2656   -2.8927   28.0799 C   0  0  0  0  0  0  0  0  0  0  0  0
   29.5593   -2.6399   27.3012 C   0  0  0  0  0  0  0  0  0  0  0  0
   30.1017   -1.2126   27.4627 C   0  0  0  0  0  0  0  0  0  0  0  0
   29.2941   -0.3990   28.3892 N   0  0  0  0  0  0  0  0  0  0  0  0
   28.3825   -0.2171   27.9651 H   0  0  0  0  0  0  0  0  0  0  0  0
   29.1275   -0.8972   29.2594 H   0  0  0  0  0  0  0  0  0  0  0  0
   30.9637   -0.6998   25.2093 O   0  0  0  0  0  0  0  0  0  0  0  0
   30.1260   -0.5413   26.0847 C   0  0  0  0  0  0  0  0  0  0  0  0
   29.1193    0.3405   25.9147 O   0  0  0  0  0  0  0  0  0  0  0  0
   29.2512    0.6683   25.0001 H   0  0  0  0  0  0  0  0  0  0  0  0
   27.0676   -3.0110   27.1378 C   0  0  0  0  0  0  0  0  0  0  0  0
   26.8393   -1.7601   26.4511 N   0  0  0  0  0  0  0  0  0  0  0  0
   27.4311   -1.6049   25.6455 H   0  0  0  0  0  0  0  0  0  0  0  0
   25.9937   -0.7629   26.7765 C   0  0  0  0  0  0  0  0  0  0  0  0
   24.7392   -0.7914   26.4941 N   0  0  0  0  0  0  0  0  0  0  0  0
   26.4814    0.3023   27.4180 N   0  0  0  0  0  0  0  0  0  0  0  0
   24.5204   -1.6604   26.0081 H   0  0  0  0  0  0  0  0  0  0  0  0
   25.8191    1.0295   27.6523 H   0  0  0  0  0  0  0  0  0  0  0  0
   27.4185    0.3711   27.7696 H   0  0  0  0  0  0  0  0  0  0  0  0
  7  8  2  0  0  0
  8  9  1  0  0  0
  8  3  1  0  0  0
  9 10  1  0  0  0
  3  4  1  0  0  0
  3  2  1  0  0  0
  4  5  1  0  0  0
  4  6  1  0  0  0
  2  1  1  0  0  0
  1 11  1  0  0  0
 11 12  1  0  0  0
 12 14  1  0  0  0
 12 13  1  0  0  0
 14 15  2  0  0  0
 14 16  1  0  0  0
 15 17  1  0  0  0
 16 18  1  0  0  0
 16 19  1  0  0  0
M  END
> <minimizedAffinity>
-5.01414

$$$$
ZINC000012661824


 23 23  0  0  0  0  0  0  0  0999 V2000
   31.3038   -1.4551   24.5733 C   0  0  0  0  0  0  0  0  0  0  0  0
   32.4374   -1.7233   25.2576 C   0  0  0  0  0  0  0  0  0  0  0  0
   33.5221   -2.5257   24.5748 C   0  0  0  0  0  0  0  0  0  0  0  0
   29.3113   -1.1700   25.9750 C   0  0  0  0  0  0  0  0  0  0  0  0
   30.1371   -0.7136   25.0170 C   0  0  0  0  0  0  0  0  0  0  0  0
   27.0207   -1.2509   26.7337 C   0  0  0  0  0  0  0  0  0  0  0  0
   28.1132   -0.4967   26.4917 C   0  0  0  0  0  0  0  0  0  0  0  0
   28.1955    0.9944   26.7040 C   0  0  0  0  0  0  0  0  0  0  0  0
   25.4245   -0.5075   28.4108 O   0  0  0  0  0  0  0  0  0  0  0  0
   25.7252   -0.7973   27.2716 C   0  0  0  0  0  0  0  0  0  0  0  0
   24.8238   -0.7416   26.2746 O   0  0  0  0  0  0  0  0  0  0  0  0
   24.0069   -0.4373   26.7217 H   0  0  0  0  0  0  0  0  0  0  0  0
   32.6884   -1.2851   26.6290 C   0  0  0  0  0  0  0  0  0  0  0  0
   32.4152   -0.0718   27.1410 C   0  0  0  0  0  0  0  0  0  0  0  0
   32.6673    0.2873   28.5346 C   0  0  0  0  0  0  0  0  0  0  0  0
   33.8050    0.9165   28.9200 C   0  0  0  0  0  0  0  0  0  0  0  0
   31.5480   -0.0940   29.5277 C   0  0  0  0  0  0  0  0  0  0  0  0
   34.0803    1.2882   30.3620 C   0  0  0  0  0  0  0  0  0  0  0  0
   34.9205    1.3367   27.9907 C   0  0  0  0  0  0  0  0  0  0  0  0
   32.0630   -0.0511   30.9909 C   0  0  0  0  0  0  0  0  0  0  0  0
   31.0182   -1.5282   29.2912 C   0  0  0  0  0  0  0  0  0  0  0  0
   30.3669    0.8898   29.3698 C   0  0  0  0  0  0  0  0  0  0  0  0
   32.8693    1.2037   31.2820 C   0  0  0  0  0  0  0  0  0  0  0  0
  9 10  2  0  0  0
 10 11  1  0  0  0
 10  6  1  0  0  0
 11 12  1  0  0  0
  6  7  2  0  0  0
  7  4  1  0  0  0
  7  8  1  0  0  0
  4  5  2  0  0  0
  5  1  1  0  0  0
  1  2  2  0  0  0
  2 13  1  0  0  0
  2  3  1  0  0  0
 13 14  2  0  0  0
 14 15  1  0  0  0
 15 16  2  0  0  0
 15 17  1  0  0  0
 16 18  1  0  0  0
 16 19  1  0  0  0
 17 20  1  0  0  0
 17 21  1  0  0  0
 17 22  1  0  0  0
 18 23  1  0  0  0
 20 23  1  0  0  0
M  END
> <minimizedAffinity>
-9.04644

$$$$
ZINC000001532526


 15 14  0  0  0  0  0  0  0  0999 V2000
   26.4898   -2.3625   28.0048 C   0  0  0  0  0  0  0  0  0  0  0  0
   25.2922   -3.2246   28.1494 N   0  0  0  0  0  0  0  0  0  0  0  0
   24.5293   -2.6451   28.5093 H   0  0  0  0  0  0  0  0  0  0  0  0
   24.9756   -3.4821   27.2102 H   0  0  0  0  0  0  0  0  0  0  0  0
   26.9150   -0.2395   26.8312 O   0  0  0  0  0  0  0  0  0  0  0  0
   26.1469   -1.1347   27.1512 C   0  0  0  0  0  0  0  0  0  0  0  0
   24.8699   -1.1247   26.7236 O   0  0  0  0  0  0  0  0  0  0  0  0
   24.7952   -0.2973   26.2028 H   0  0  0  0  0  0  0  0  0  0  0  0
   27.6437   -3.1462   27.3736 C   0  0  0  0  0  0  0  0  0  0  0  0
   28.9525   -3.0015   28.1497 C   0  0  0  0  0  0  0  0  0  0  0  0
   29.9834   -2.2100   27.3764 C   0  0  0  0  0  0  0  0  0  0  0  0
   30.9123   -2.6977   26.7453 O   0  0  0  0  0  0  0  0  0  0  0  0
   29.7997   -0.8591   27.4245 N   0  0  0  0  0  0  0  0  0  0  0  0
   30.4580   -0.2749   26.9258 H   0  0  0  0  0  0  0  0  0  0  0  0
   29.0506   -0.4228   27.9431 H   0  0  0  0  0  0  0  0  0  0  0  0
  5  6  2  0  0  0
  6  7  1  0  0  0
  6  1  1  0  0  0
  7  8  1  0  0  0
  1  2  1  0  0  0
  1  9  1  0  0  0
  2  3  1  0  0  0
  2  4  1  0  0  0
  9 10  1  0  0  0
 10 11  1  0  0  0
 11 12  2  0  0  0
 11 13  1  0  0  0
 13 14  1  0  0  0
 13 15  1  0  0  0
M  END
> <minimizedAffinity>
-4.95265

$$$$
ZINC000003914808


 31 34  0  0  0  0  0  0  0  0999 V2000
   32.5501   -2.7639   23.3183 C   0  0  0  0  0  0  0  0  0  0  0  0
   31.8916   -1.5746   24.0774 C   0  0  0  0  0  0  0  0  0  0  0  0
   33.5623   -3.3308   24.3438 C   0  0  0  0  0  0  0  0  0  0  0  0
   31.7014   -2.2449   25.4574 C   0  0  0  0  0  0  0  0  0  0  0  0
   30.4974   -1.1841   23.5651 C   0  0  0  0  0  0  0  0  0  0  0  0
   32.8001   -0.3259   24.1089 C   0  0  0  0  0  0  0  0  0  0  0  0
   33.0537   -2.8970   25.7329 C   0  0  0  0  0  0  0  0  0  0  0  0
   31.1040   -1.3008   26.5110 C   0  0  0  0  0  0  0  0  0  0  0  0
   29.7572   -0.2681   24.5559 C   0  0  0  0  0  0  0  0  0  0  0  0
   31.0209   -1.9547   27.9032 C   0  0  0  0  0  0  0  0  0  0  0  0
   29.7009   -0.8182   26.0085 C   0  0  0  0  0  0  0  0  0  0  0  0
   30.3943   -3.2297   27.8102 O   0  0  0  0  0  0  0  0  0  0  0  0
   30.2859   -1.0740   28.9176 C   0  0  0  0  0  0  0  0  0  0  0  0
   29.0193    0.1634   27.0368 C   0  0  0  0  0  0  0  0  0  0  0  0
   28.9240   -0.5344   28.4351 C   0  0  0  0  0  0  0  0  0  0  0  0
   27.5898    0.5964   26.5942 C   0  0  0  0  0  0  0  0  0  0  0  0
   29.8324    1.4782   27.1786 C   0  0  0  0  0  0  0  0  0  0  0  0
   27.8396   -1.6317   28.4872 C   0  0  0  0  0  0  0  0  0  0  0  0
   26.5577   -0.5228   26.6369 C   0  0  0  0  0  0  0  0  0  0  0  0
   26.4754   -1.1234   28.0343 C   0  0  0  0  0  0  0  0  0  0  0  0
   25.5564   -2.2106   28.0398 O   0  0  0  0  0  0  0  0  0  0  0  0
   30.3516   -3.6084   28.7046 H   0  0  0  0  0  0  0  0  0  0  0  0
   24.7048   -1.8777   27.7093 H   0  0  0  0  0  0  0  0  0  0  0  0
   33.0745   -2.5136   21.8770 C   0  0  0  0  0  0  0  0  0  0  0  0
   32.1691   -3.2602   20.8802 C   0  0  0  0  0  0  0  0  0  0  0  0
   34.5467   -2.9118   21.6300 C   0  0  0  0  0  0  0  0  0  0  0  0
   35.1645   -2.2034   20.4201 C   0  0  0  0  0  0  0  0  0  0  0  0
   37.5585   -1.8382   20.7852 O   0  0  0  0  0  0  0  0  0  0  0  0
   36.6402   -2.4821   20.3083 C   0  0  0  0  0  0  0  0  0  0  0  0
   36.8864   -3.5943   19.5876 O   0  0  0  0  0  0  0  0  0  0  0  0
   37.8637   -3.6679   19.5938 H   0  0  0  0  0  0  0  0  0  0  0  0
 28 29  2  0  0  0
 29 30  1  0  0  0
 29 27  1  0  0  0
 30 31  1  0  0  0
 27 26  1  0  0  0
 26 24  1  0  0  0
 24  1  1  0  0  0
 24 25  1  0  0  0
  1  2  1  0  0  0
  1  3  1  0  0  0
  2  4  1  0  0  0
  2  5  1  0  0  0
  2  6  1  0  0  0
  3  7  1  0  0  0
  4  8  1  0  0  0
  4  7  1  0  0  0
  5  9  1  0  0  0
  8 10  1  0  0  0
  8 11  1  0  0  0
  9 11  1  0  0  0
 10 12  1  0  0  0
 10 13  1  0  0  0
 11 14  1  0  0  0
 12 22  1  0  0  0
 13 15  1  0  0  0
 14 16  1  0  0  0
 14 17  1  0  0  0
 14 15  1  0  0  0
 15 18  1  0  0  0
 16 19  1  0  0  0
 18 20  1  0  0  0
 19 20  1  0  0  0
 20 21  1  0  0  0
 21 23  1  0  0  0
M  END
> <minimizedAffinity>
-6.99445

$$$$
ZINC000003589203


 13 12  0  0  0  0  0  0  0  0999 V2000
   27.5933   -1.6679   27.7400 C   0  0  0  0  0  0  0  0  0  0  0  0
   28.8250   -1.9219   26.9894 N   0  0  0  0  0  0  0  0  0  0  0  0
   30.0150   -2.1815   27.6210 C   0  0  0  0  0  0  0  0  0  0  0  0
   30.1609   -2.1267   28.8368 O   0  0  0  0  0  0  0  0  0  0  0  0
   31.1465   -2.5019   26.6834 C   0  0  0  0  0  0  0  0  0  0  0  0
   28.7380   -2.0898   25.9937 H   0  0  0  0  0  0  0  0  0  0  0  0
   26.6626   -2.8831   27.7862 C   0  0  0  0  0  0  0  0  0  0  0  0
   25.7313   -3.0349   28.5635 O   0  0  0  0  0  0  0  0  0  0  0  0
   26.9114   -3.8210   26.8480 O   0  0  0  0  0  0  0  0  0  0  0  0
   26.2726   -4.5377   27.0445 H   0  0  0  0  0  0  0  0  0  0  0  0
   27.7582    1.1276   27.3903 S   0  0  0  0  0  0  0  0  0  0  0  0
   26.8415   -0.4458   27.2001 C   0  0  0  0  0  0  0  0  0  0  0  0
   28.6482    0.9110   26.4088 H   0  0  0  0  0  0  0  0  0  0  0  0
 11 12  1  0  0  0
 11 13  1  0  0  0
 12  1  1  0  0  0
  1  2  1  0  0  0
  1  7  1  0  0  0
  2  3  1  0  0  0
  2  6  1  0  0  0
  7  8  2  0  0  0
  7  9  1  0  0  0
  3  4  2  0  0  0
  3  5  1  0  0  0
  9 10  1  0  0  0
M  END
> <minimizedAffinity>
-4.51405

$$$$
ZINC000000000882


 13 14  0  0  0  0  0  0  0  0999 V2000
   27.6878   -3.6404   28.0372 N   0  0  0  0  0  0  0  0  0  0  0  0
   28.4779   -2.6228   27.6212 C   0  0  0  0  0  0  0  0  0  0  0  0
   26.3923   -3.3740   28.3190 C   0  0  0  0  0  0  0  0  0  0  0  0
   29.7960   -2.8929   27.3344 N   0  0  0  0  0  0  0  0  0  0  0  0
   27.9122   -1.3424   27.5035 C   0  0  0  0  0  0  0  0  0  0  0  0
   25.7416   -2.1941   28.2442 N   0  0  0  0  0  0  0  0  0  0  0  0
   28.4248   -0.1181   27.1167 N   0  0  0  0  0  0  0  0  0  0  0  0
   26.5719   -1.2277   27.8283 C   0  0  0  0  0  0  0  0  0  0  0  0
   27.4092    0.7154   27.2085 C   0  0  0  0  0  0  0  0  0  0  0  0
   26.2697    0.0885   27.6345 N   0  0  0  0  0  0  0  0  0  0  0  0
   30.1247   -3.8381   27.4447 H   0  0  0  0  0  0  0  0  0  0  0  0
   30.3950   -2.1421   27.0233 H   0  0  0  0  0  0  0  0  0  0  0  0
   25.3639    0.5066   27.7836 H   0  0  0  0  0  0  0  0  0  0  0  0
  1  2  2  0  0  0
  1  3  1  0  0  0
  2  4  1  0  0  0
  2  5  1  0  0  0
  3  6  2  0  0  0
  4 11  1  0  0  0
  4 12  1  0  0  0
  5  7  1  0  0  0
  5  8  2  0  0  0
  6  8  1  0  0  0
  7  9  2  0  0  0
  8 10  1  0  0  0
  9 10  1  0  0  0
 10 13  1  0  0  0
M  END
> <minimizedAffinity>
-5.07541

$$$$
ZINC000000034157


 18 18  0  0  0  0  0  0  0  0999 V2000
   25.4153   -1.1500   26.9780 O   0  0  0  0  0  0  0  0  0  0  0  0
   26.5338   -1.8614   27.3181 C   0  0  0  0  0  0  0  0  0  0  0  0
   26.3520   -3.0417   28.0301 C   0  0  0  0  0  0  0  0  0  0  0  0
   27.8139   -1.4283   26.9755 C   0  0  0  0  0  0  0  0  0  0  0  0
   25.0938   -3.4546   28.3603 O   0  0  0  0  0  0  0  0  0  0  0  0
   27.4392   -3.8027   28.4200 C   0  0  0  0  0  0  0  0  0  0  0  0
   28.9371   -2.1965   27.3315 C   0  0  0  0  0  0  0  0  0  0  0  0
   28.7253   -3.3756   28.0800 C   0  0  0  0  0  0  0  0  0  0  0  0
   25.6921   -0.3537   26.4929 H   0  0  0  0  0  0  0  0  0  0  0  0
   24.5053   -2.7653   27.9930 H   0  0  0  0  0  0  0  0  0  0  0  0
   30.3644   -1.7642   27.0205 C   0  0  0  0  0  0  0  0  0  0  0  0
   31.1415   -2.8912   26.5798 O   0  0  0  0  0  0  0  0  0  0  0  0
   30.5816   -3.3972   25.9651 H   0  0  0  0  0  0  0  0  0  0  0  0
   30.5688   -0.6098   25.9846 C   0  0  0  0  0  0  0  0  0  0  0  0
   31.3136    0.5154   26.5912 N   0  0  0  0  0  0  0  0  0  0  0  0
   31.3624   -1.0448   24.7477 C   0  0  0  0  0  0  0  0  0  0  0  0
   32.1752    0.1262   26.9888 H   0  0  0  0  0  0  0  0  0  0  0  0
   30.7990    0.8548   27.4045 H   0  0  0  0  0  0  0  0  0  0  0  0
  1  2  1  0  0  0
  1  9  1  0  0  0
  2  3  2  0  0  0
  2  4  1  0  0  0
  3  5  1  0  0  0
  3  6  1  0  0  0
  4  7  2  0  0  0
  5 10  1  0  0  0
  6  8  2  0  0  0
  7 11  1  0  0  0
  7  8  1  0  0  0
 11 12  1  0  0  0
 11 14  1  0  0  0
 12 13  1  0  0  0
 14 15  1  0  0  0
 14 16  1  0  0  0
 15 17  1  0  0  0
 15 18  1  0  0  0
M  END
> <minimizedAffinity>
-6.96501

$$$$
ZINC000000020259


 14 14  0  0  0  0  0  0  0  0999 V2000
   28.2835   -3.7496   27.4612 O   0  0  0  0  0  0  0  0  0  0  0  0
   28.5767   -2.3563   27.6348 C   0  0  0  0  0  0  0  0  0  0  0  0
   28.0872   -3.8410   26.5059 H   0  0  0  0  0  0  0  0  0  0  0  0
   30.0701   -2.1384   27.8151 C   0  0  0  0  0  0  0  0  0  0  0  0
   30.5379   -1.4543   28.9498 C   0  0  0  0  0  0  0  0  0  0  0  0
   31.0089   -2.5890   26.8741 C   0  0  0  0  0  0  0  0  0  0  0  0
   31.9026   -1.2213   29.1324 C   0  0  0  0  0  0  0  0  0  0  0  0
   32.3735   -2.3558   27.0579 C   0  0  0  0  0  0  0  0  0  0  0  0
   32.8196   -1.6707   28.1854 C   0  0  0  0  0  0  0  0  0  0  0  0
   27.9842   -1.5512   26.4288 C   0  0  0  0  0  0  0  0  0  0  0  0
   28.2338   -0.0529   26.6507 C   0  0  0  0  0  0  0  0  0  0  0  0
   26.5260   -1.8275   26.3273 N   0  0  0  0  0  0  0  0  0  0  0  0
   25.7114   -0.7282   26.8356 C   0  0  0  0  0  0  0  0  0  0  0  0
   26.3021   -1.9428   25.3340 H   0  0  0  0  0  0  0  0  0  0  0  0
  1  2  1  0  0  0
  1  3  1  0  0  0
  2  4  1  0  0  0
  2 10  1  0  0  0
  4  5  2  0  0  0
  4  6  1  0  0  0
 10 12  1  0  0  0
 10 11  1  0  0  0
  5  7  1  0  0  0
  6  8  2  0  0  0
 12 13  1  0  0  0
 12 14  1  0  0  0
  7  9  2  0  0  0
  8  9  1  0  0  0
M  END
> <minimizedAffinity>
-5.75273

$$$$
ZINC000085432549


 63 71  0  0  0  0  0  0  0  0999 V2000
   31.9077   -2.4819   22.0388 C   0  0  0  0  0  0  0  0  0  0  0  0
   30.5510   -2.1681   21.7409 C   0  0  0  0  0  0  0  0  0  0  0  0
   32.4523   -1.9600   23.2331 C   0  0  0  0  0  0  0  0  0  0  0  0
   29.8145   -1.2759   22.5347 C   0  0  0  0  0  0  0  0  0  0  0  0
   31.6922   -1.1289   24.0479 C   0  0  0  0  0  0  0  0  0  0  0  0
   30.4067   -0.7654   23.6715 C   0  0  0  0  0  0  0  0  0  0  0  0
   32.0822   -0.4441   25.3409 C   0  0  0  0  0  0  0  0  0  0  0  0
   29.8782    0.1276   24.6052 N   0  0  0  0  0  0  0  0  0  0  0  0
   30.7020    0.1018   25.8380 C   0  0  0  0  0  0  0  0  0  0  0  0
   32.8805   -1.2697   26.3622 C   0  0  0  0  0  0  0  0  0  0  0  0
   33.0547    0.7103   25.0429 C   0  0  0  0  0  0  0  0  0  0  0  0
   28.8470    1.0086   24.3971 C   0  0  0  0  0  0  0  0  0  0  0  0
   30.0871   -0.7101   27.0182 C   0  0  0  0  0  0  0  0  0  0  0  0
   33.7219   -0.2852   27.0734 N   0  0  0  0  0  0  0  0  0  0  0  0
   32.0956   -2.3855   27.1591 C   0  0  0  0  0  0  0  0  0  0  0  0
   33.6491    1.0141   26.4055 C   0  0  0  0  0  0  0  0  0  0  0  0
   28.4730    1.8466   25.2106 O   0  0  0  0  0  0  0  0  0  0  0  0
   30.5423   -0.0696   28.2316 O   0  0  0  0  0  0  0  0  0  0  0  0
   30.5375   -2.1944   27.0346 C   0  0  0  0  0  0  0  0  0  0  0  0
   33.6461   -0.1856   28.5175 C   0  0  0  0  0  0  0  0  0  0  0  0
   32.5505   -2.4244   28.6174 C   0  0  0  0  0  0  0  0  0  0  0  0
   33.2513   -1.4470   29.2035 C   0  0  0  0  0  0  0  0  0  0  0  0
   30.0712   -0.5088   28.9655 H   0  0  0  0  0  0  0  0  0  0  0  0
   32.7518   -3.4256   21.1122 C   0  0  0  0  0  0  0  0  0  0  0  0
   34.1243   -2.7264   20.8778 C   0  0  0  0  0  0  0  0  0  0  0  0
   31.9888   -3.7891   19.7816 C   0  0  0  0  0  0  0  0  0  0  0  0
   35.1871   -3.0294   21.7128 N   0  0  0  0  0  0  0  0  0  0  0  0
   34.6098   -1.7625   19.9809 C   0  0  0  0  0  0  0  0  0  0  0  0
   32.6446   -4.7893   18.7757 C   0  0  0  0  0  0  0  0  0  0  0  0
   36.3004   -2.2894   21.4243 C   0  0  0  0  0  0  0  0  0  0  0  0
   35.9762   -1.4832   20.3430 C   0  0  0  0  0  0  0  0  0  0  0  0
   33.9318   -1.1073   18.8060 C   0  0  0  0  0  0  0  0  0  0  0  0
   33.8612   -4.1948   18.0698 C   0  0  0  0  0  0  0  0  0  0  0  0
   31.6546   -5.2390   17.6611 C   0  0  0  0  0  0  0  0  0  0  0  0
   37.5618   -2.2866   22.0310 C   0  0  0  0  0  0  0  0  0  0  0  0
   36.9719   -0.6214   19.8330 C   0  0  0  0  0  0  0  0  0  0  0  0
   34.1605   -1.8267   17.4502 C   0  0  0  0  0  0  0  0  0  0  0  0
   33.3406   -3.0173   17.3933 N   0  0  0  0  0  0  0  0  0  0  0  0
   31.3667   -4.1996   16.5253 C   0  0  0  0  0  0  0  0  0  0  0  0
   38.5277   -1.4211   21.5114 C   0  0  0  0  0  0  0  0  0  0  0  0
   38.2394   -0.5982   20.4267 C   0  0  0  0  0  0  0  0  0  0  0  0
   32.6458   -3.3744   16.1698 C   0  0  0  0  0  0  0  0  0  0  0  0
   30.9928   -4.9574   15.3604 O   0  0  0  0  0  0  0  0  0  0  0  0
   35.1509   -3.7392   22.4347 H   0  0  0  0  0  0  0  0  0  0  0  0
   30.2074   -5.4824   15.5912 H   0  0  0  0  0  0  0  0  0  0  0  0
   32.1177   -5.3668   22.5503 O   0  0  0  0  0  0  0  0  0  0  0  0
   32.9299   -4.8237   21.8057 C   0  0  0  0  0  0  0  0  0  0  0  0
   34.1504   -5.3703   21.5007 O   0  0  0  0  0  0  0  0  0  0  0  0
   34.0790   -6.5532   20.7059 C   0  0  0  0  0  0  0  0  0  0  0  0
   30.1619   -3.2971   16.8997 C   0  0  0  0  0  0  0  0  0  0  0  0
   30.5260   -1.8630   17.2775 C   0  0  0  0  0  0  0  0  0  0  0  0
   29.9939   -2.7260   20.6150 O   0  0  0  0  0  0  0  0  0  0  0  0
   28.6101   -2.4221   20.4321 C   0  0  0  0  0  0  0  0  0  0  0  0
   28.5366   -0.6870   26.9840 C   0  0  0  0  0  0  0  0  0  0  0  0
   27.8378   -1.2067   26.1223 O   0  0  0  0  0  0  0  0  0  0  0  0
   28.0359   -0.0714   28.0995 O   0  0  0  0  0  0  0  0  0  0  0  0
   26.7399   -0.5327   28.4812 C   0  0  0  0  0  0  0  0  0  0  0  0
   32.5229   -3.7650   26.5288 C   0  0  0  0  0  0  0  0  0  0  0  0
   33.5611   -3.7710   25.4132 C   0  0  0  0  0  0  0  0  0  0  0  0
   29.8977   -2.8468   28.1809 O   0  0  0  0  0  0  0  0  0  0  0  0
   28.7686   -3.5760   27.9700 C   0  0  0  0  0  0  0  0  0  0  0  0
   28.2882   -3.8448   26.8812 O   0  0  0  0  0  0  0  0  0  0  0  0
   28.1923   -4.0107   29.2818 C   0  0  0  0  0  0  0  0  0  0  0  0
 46 47  2  0  0  0
 47 48  1  0  0  0
 48 49  1  0  0  0
 24 47  1  0  0  0
 24  1  1  0  0  0
 24 25  1  0  0  0
 24 26  1  0  0  0
  1  2  2  0  0  0
  1  3  1  0  0  0
 25 27  1  0  0  0
 25 28  2  0  0  0
 26 29  1  0  0  0
  2 52  1  0  0  0
  2  4  1  0  0  0
  3  5  2  0  0  0
 27 30  1  0  0  0
 27 44  1  0  0  0
 28 31  1  0  0  0
 28 32  1  0  0  0
 29 33  1  0  0  0
 29 34  1  0  0  0
 52 53  1  0  0  0
  4  6  2  0  0  0
  5  6  1  0  0  0
 30 35  1  0  0  0
 30 31  2  0  0  0
 31 36  1  0  0  0
 32 37  1  0  0  0
 34 39  1  0  0  0
  6  8  1  0  0  0
  7  5  1  0  0  0
  7  9  1  0  0  0
  7 10  1  0  0  0
  7 11  1  0  0  0
 35 40  2  0  0  0
 36 41  2  0  0  0
 37 38  1  0  0  0
 38 33  1  0  0  0
 38 42  1  0  0  0
 39 43  1  0  0  0
 39 50  1  0  0  0
 39 42  1  0  0  0
  8 12  1  0  0  0
  8  9  1  0  0  0
  9 13  1  0  0  0
 10 14  1  0  0  0
 10 15  1  0  0  0
 11 16  1  0  0  0
 40 41  1  0  0  0
 43 45  1  0  0  0
 50 51  1  0  0  0
 12 17  2  0  0  0
 13 18  1  0  0  0
 13 54  1  0  0  0
 13 19  1  0  0  0
 14 20  1  0  0  0
 14 16  1  0  0  0
 15 21  1  0  0  0
 15 58  1  0  0  0
 15 19  1  0  0  0
 18 23  1  0  0  0
 54 55  2  0  0  0
 54 56  1  0  0  0
 19 60  1  0  0  0
 20 22  1  0  0  0
 21 22  2  0  0  0
 58 59  1  0  0  0
 56 57  1  0  0  0
 60 61  1  0  0  0
 61 62  2  0  0  0
 61 63  1  0  0  0
M  END
> <minimizedAffinity>
12.41731

$$$$
ZINC000001530775


 31 32  0  0  0  0  0  0  0  0999 V2000
   33.4496    1.9613   28.5508 C   0  0  0  0  0  0  0  0  0  0  0  0
   33.6369    1.1361   29.8243 C   0  0  0  0  0  0  0  0  0  0  0  0
   32.4526    0.2284   30.1517 C   0  0  0  0  0  0  0  0  0  0  0  0
   31.2667    0.8836   29.6983 O   0  0  0  0  0  0  0  0  0  0  0  0
   30.3363    0.1163   29.0542 C   0  0  0  0  0  0  0  0  0  0  0  0
   30.6851   -1.2313   28.9220 C   0  0  0  0  0  0  0  0  0  0  0  0
   29.1161    0.5613   28.5426 C   0  0  0  0  0  0  0  0  0  0  0  0
   29.8276   -2.1319   28.2860 C   0  0  0  0  0  0  0  0  0  0  0  0
   28.2531   -0.3355   27.9020 C   0  0  0  0  0  0  0  0  0  0  0  0
   28.6099   -1.6812   27.7725 C   0  0  0  0  0  0  0  0  0  0  0  0
   27.6903   -2.6351   27.0999 C   0  0  0  0  0  0  0  0  0  0  0  0
   27.8042   -3.9176   27.2388 N   0  0  0  0  0  0  0  0  0  0  0  0
   26.6930   -2.1787   26.3049 N   0  0  0  0  0  0  0  0  0  0  0  0
   28.5606   -4.1516   27.8881 H   0  0  0  0  0  0  0  0  0  0  0  0
   26.5836   -1.2091   26.0485 H   0  0  0  0  0  0  0  0  0  0  0  0
   26.1055   -2.8725   25.8604 H   0  0  0  0  0  0  0  0  0  0  0  0
   33.8239    1.2049   27.2776 C   0  0  0  0  0  0  0  0  0  0  0  0
   32.7129    1.2787   26.2315 C   0  0  0  0  0  0  0  0  0  0  0  0
   31.9252    0.0941   26.3510 O   0  0  0  0  0  0  0  0  0  0  0  0
   32.2188   -0.9392   25.5054 C   0  0  0  0  0  0  0  0  0  0  0  0
   31.7601   -0.7667   24.1957 C   0  0  0  0  0  0  0  0  0  0  0  0
   32.9150   -2.1022   25.8395 C   0  0  0  0  0  0  0  0  0  0  0  0
   31.9912   -1.7431   23.2236 C   0  0  0  0  0  0  0  0  0  0  0  0
   33.1478   -3.0855   24.8706 C   0  0  0  0  0  0  0  0  0  0  0  0
   32.6843   -2.9066   23.5637 C   0  0  0  0  0  0  0  0  0  0  0  0
   32.9385   -3.9467   22.5333 C   0  0  0  0  0  0  0  0  0  0  0  0
   34.1085   -4.1264   22.0081 N   0  0  0  0  0  0  0  0  0  0  0  0
   31.9321   -4.7458   22.1050 N   0  0  0  0  0  0  0  0  0  0  0  0
   34.8013   -3.5006   22.4289 H   0  0  0  0  0  0  0  0  0  0  0  0
   30.9675   -4.6195   22.3718 H   0  0  0  0  0  0  0  0  0  0  0  0
   32.1580   -5.4273   21.3920 H   0  0  0  0  0  0  0  0  0  0  0  0
  4  5  1  0  0  0
  4  3  1  0  0  0
  5  6  2  0  0  0
  5  7  1  0  0  0
  3  2  1  0  0  0
  6  8  1  0  0  0
  7  9  2  0  0  0
  2  1  1  0  0  0
  8 10  2  0  0  0
  9 10  1  0  0  0
  1 17  1  0  0  0
 10 11  1  0  0  0
 17 18  1  0  0  0
 11 12  2  0  0  0
 11 13  1  0  0  0
 18 19  1  0  0  0
 12 14  1  0  0  0
 13 15  1  0  0  0
 13 16  1  0  0  0
 19 20  1  0  0  0
 20 21  2  0  0  0
 20 22  1  0  0  0
 21 23  1  0  0  0
 22 24  2  0  0  0
 23 25  2  0  0  0
 24 25  1  0  0  0
 25 26  1  0  0  0
 26 27  2  0  0  0
 26 28  1  0  0  0
 27 29  1  0  0  0
 28 30  1  0  0  0
 28 31  1  0  0  0
M  END
> <minimizedAffinity>
-8.29213

$$$$
ZINC000000491073


 22 25  0  0  0  0  0  0  0  0999 V2000
   29.7277   -1.8295   26.3180 O   0  0  0  0  0  0  0  0  0  0  0  0
   29.3561   -0.7517   27.0910 C   0  0  0  0  0  0  0  0  0  0  0  0
   30.9912   -2.2349   26.9074 C   0  0  0  0  0  0  0  0  0  0  0  0
   28.0737   -0.2253   27.1253 C   0  0  0  0  0  0  0  0  0  0  0  0
   30.4112   -0.2186   27.8326 C   0  0  0  0  0  0  0  0  0  0  0  0
   31.6676   -0.9701   27.5271 C   0  0  0  0  0  0  0  0  0  0  0  0
   31.8435   -2.9338   25.8471 C   0  0  0  0  0  0  0  0  0  0  0  0
   27.8610    0.8665   27.9666 C   0  0  0  0  0  0  0  0  0  0  0  0
   30.2173    0.8709   28.6710 C   0  0  0  0  0  0  0  0  0  0  0  0
   32.5174   -0.2152   26.5151 C   0  0  0  0  0  0  0  0  0  0  0  0
   32.4694   -1.3683   28.7774 C   0  0  0  0  0  0  0  0  0  0  0  0
   32.2969   -1.9740   24.7472 C   0  0  0  0  0  0  0  0  0  0  0  0
   28.9178    1.4049   28.7280 C   0  0  0  0  0  0  0  0  0  0  0  0
   31.3459    1.5129   29.4389 C   0  0  0  0  0  0  0  0  0  0  0  0
   32.7751   -0.6597   25.2749 C   0  0  0  0  0  0  0  0  0  0  0  0
   33.0677   -0.2221   29.6015 C   0  0  0  0  0  0  0  0  0  0  0  0
   31.2372   -1.7079   23.8392 O   0  0  0  0  0  0  0  0  0  0  0  0
   32.0725    0.5867   30.3250 N   0  0  0  0  0  0  0  0  0  0  0  0
   32.7488    1.3549   31.3783 C   0  0  0  0  0  0  0  0  0  0  0  0
   30.4602   -1.4559   24.3771 H   0  0  0  0  0  0  0  0  0  0  0  0
   27.1390   -0.8318   26.3378 O   0  0  0  0  0  0  0  0  0  0  0  0
   25.7897   -0.7749   26.7781 C   0  0  0  0  0  0  0  0  0  0  0  0
  1  2  1  0  0  0
  1  3  1  0  0  0
  2  4  2  0  0  0
  2  5  1  0  0  0
  3  6  1  0  0  0
  3  7  1  0  0  0
  4 21  1  0  0  0
  4  8  1  0  0  0
  5  9  2  0  0  0
  5  6  1  0  0  0
  6 10  1  0  0  0
  6 11  1  0  0  0
  7 12  1  0  0  0
 21 22  1  0  0  0
  8 13  2  0  0  0
  9 14  1  0  0  0
  9 13  1  0  0  0
 10 15  2  0  0  0
 11 16  1  0  0  0
 12 17  1  0  0  0
 12 15  1  0  0  0
 14 18  1  0  0  0
 16 18  1  0  0  0
 17 20  1  0  0  0
 18 19  1  0  0  0
M  END
> <minimizedAffinity>
-7.91136

$$$$
ZINC000000527386


 25 28  0  0  0  0  0  0  0  0999 V2000
   28.6647   -1.4554   27.3919 C   0  0  0  0  0  0  0  0  0  0  0  0
   28.0164   -0.0889   27.0555 C   0  0  0  0  0  0  0  0  0  0  0  0
   27.6963   -2.6055   27.0643 C   0  0  0  0  0  0  0  0  0  0  0  0
   26.6275    0.0100   27.7161 C   0  0  0  0  0  0  0  0  0  0  0  0
   26.3439   -2.3909   27.7348 C   0  0  0  0  0  0  0  0  0  0  0  0
   25.7538   -1.1101   27.3544 N   0  0  0  0  0  0  0  0  0  0  0  0
   25.5922   -1.0957   26.3470 H   0  0  0  0  0  0  0  0  0  0  0  0
   33.6691   -2.3570   24.9097 F   0  0  0  0  0  0  0  0  0  0  0  0
   32.4822   -2.1406   25.4917 C   0  0  0  0  0  0  0  0  0  0  0  0
   32.1871   -2.7636   26.6971 C   0  0  0  0  0  0  0  0  0  0  0  0
   31.5628   -1.2985   24.8803 C   0  0  0  0  0  0  0  0  0  0  0  0
   30.9505   -2.5388   27.3048 C   0  0  0  0  0  0  0  0  0  0  0  0
   30.3252   -1.0726   25.4856 C   0  0  0  0  0  0  0  0  0  0  0  0
   30.0051   -1.6864   26.7086 C   0  0  0  0  0  0  0  0  0  0  0  0
   28.9050    1.0860   27.5054 C   0  0  0  0  0  0  0  0  0  0  0  0
   29.3040    0.8702   28.8606 O   0  0  0  0  0  0  0  0  0  0  0  0
   30.6362    0.9924   29.1491 C   0  0  0  0  0  0  0  0  0  0  0  0
   31.4167    1.4640   28.0871 C   0  0  0  0  0  0  0  0  0  0  0  0
   31.2412    0.6844   30.3824 C   0  0  0  0  0  0  0  0  0  0  0  0
   32.7714    1.6161   28.2911 C   0  0  0  0  0  0  0  0  0  0  0  0
   32.6209    0.8483   30.5616 C   0  0  0  0  0  0  0  0  0  0  0  0
   33.6706    2.0614   27.3730 O   0  0  0  0  0  0  0  0  0  0  0  0
   33.3578    1.3167   29.4963 C   0  0  0  0  0  0  0  0  0  0  0  0
   34.8909    2.0066   28.1404 C   0  0  0  0  0  0  0  0  0  0  0  0
   34.6993    1.5349   29.4907 O   0  0  0  0  0  0  0  0  0  0  0  0
  8  9  1  0  0  0
  9 10  2  0  0  0
  9 11  1  0  0  0
 10 12  1  0  0  0
 11 13  2  0  0  0
 12 14  2  0  0  0
 13 14  1  0  0  0
 14  1  1  0  0  0
  1  2  1  0  0  0
  1  3  1  0  0  0
  2  4  1  0  0  0
  2 15  1  0  0  0
  3  5  1  0  0  0
  4  6  1  0  0  0
 15 16  1  0  0  0
  5  6  1  0  0  0
  6  7  1  0  0  0
 16 17  1  0  0  0
 17 18  2  0  0  0
 17 19  1  0  0  0
 18 20  1  0  0  0
 19 21  2  0  0  0
 20 22  1  0  0  0
 20 23  2  0  0  0
 21 23  1  0  0  0
 22 24  1  0  0  0
 23 25  1  0  0  0
 24 25  1  0  0  0
M  END
> <minimizedAffinity>
-9.66877

$$$$
ZINC000003977981


 34 38  0  0  0  0  0  0  0  0999 V2000
   33.9802   -1.8205   18.0492 F   0  0  0  0  0  0  0  0  0  0  0  0
   34.5508   -3.0792   18.1645 C   0  0  0  0  0  0  0  0  0  0  0  0
   33.4734   -3.9840   18.8946 C   0  0  0  0  0  0  0  0  0  0  0  0
   35.8793   -2.8407   18.9483 C   0  0  0  0  0  0  0  0  0  0  0  0
   34.8140   -3.5549   16.6955 C   0  0  0  0  0  0  0  0  0  0  0  0
   32.2203   -4.0362   18.0013 C   0  0  0  0  0  0  0  0  0  0  0  0
   33.1335   -3.4166   20.2728 C   0  0  0  0  0  0  0  0  0  0  0  0
   33.9386   -5.4381   19.1399 C   0  0  0  0  0  0  0  0  0  0  0  0
   36.4922   -4.0607   19.3501 O   0  0  0  0  0  0  0  0  0  0  0  0
   36.9067   -1.9856   18.1680 C   0  0  0  0  0  0  0  0  0  0  0  0
   35.7927   -2.5773   16.0280 C   0  0  0  0  0  0  0  0  0  0  0  0
   33.5002   -3.6310   15.8992 C   0  0  0  0  0  0  0  0  0  0  0  0
   30.9960   -3.6536   18.4086 C   0  0  0  0  0  0  0  0  0  0  0  0
   32.4542   -4.4987   16.5864 C   0  0  0  0  0  0  0  0  0  0  0  0
   31.9122   -3.0364   20.6718 C   0  0  0  0  0  0  0  0  0  0  0  0
   37.1663   -2.4947   16.7347 C   0  0  0  0  0  0  0  0  0  0  0  0
   36.1598   -2.7817   14.5592 C   0  0  0  0  0  0  0  0  0  0  0  0
   30.7498   -3.1396   19.7697 C   0  0  0  0  0  0  0  0  0  0  0  0
   31.3116   -4.4347   15.8443 F   0  0  0  0  0  0  0  0  0  0  0  0
   37.9030   -1.5055   15.7747 C   0  0  0  0  0  0  0  0  0  0  0  0
   37.9161   -3.8542   16.7659 C   0  0  0  0  0  0  0  0  0  0  0  0
   37.4324   -1.9279   14.3730 C   0  0  0  0  0  0  0  0  0  0  0  0
   29.6290   -2.8132   20.1387 O   0  0  0  0  0  0  0  0  0  0  0  0
   37.4179   -0.1684   15.9274 O   0  0  0  0  0  0  0  0  0  0  0  0
   37.1146   -0.7279   13.6714 O   0  0  0  0  0  0  0  0  0  0  0  0
   37.1557    0.3387   14.6141 C   0  0  0  0  0  0  0  0  0  0  0  0
   38.2704    1.2996   14.2100 C   0  0  0  0  0  0  0  0  0  0  0  0
   35.8118    1.0565   14.6207 C   0  0  0  0  0  0  0  0  0  0  0  0
   37.2564   -3.8408   19.9138 H   0  0  0  0  0  0  0  0  0  0  0  0
   39.4314   -1.5232   15.9189 C   0  0  0  0  0  0  0  0  0  0  0  0
   40.1682   -2.1593   15.1585 O   0  0  0  0  0  0  0  0  0  0  0  0
   40.0315   -0.7295   17.0738 C   0  0  0  0  0  0  0  0  0  0  0  0
   40.2220   -1.5504   18.2180 O   0  0  0  0  0  0  0  0  0  0  0  0
   40.4572   -2.4386   17.8813 H   0  0  0  0  0  0  0  0  0  0  0  0
  2  1  1  0  0  0
  2  3  1  0  0  0
  2  4  1  0  0  0
  2  5  1  0  0  0
  3  6  1  0  0  0
  3  7  1  0  0  0
  3  8  1  0  0  0
  4  9  1  0  0  0
  4 10  1  0  0  0
  5 11  1  0  0  0
  5 12  1  0  0  0
  6 13  2  0  0  0
  6 14  1  0  0  0
  7 15  2  0  0  0
  9 29  1  0  0  0
 10 16  1  0  0  0
 11 17  1  0  0  0
 11 16  1  0  0  0
 12 14  1  0  0  0
 13 18  1  0  0  0
 14 19  1  0  0  0
 15 18  1  0  0  0
 16 20  1  0  0  0
 16 21  1  0  0  0
 17 22  1  0  0  0
 18 23  2  0  0  0
 20 24  1  0  0  0
 20 30  1  0  0  0
 20 22  1  0  0  0
 22 25  1  0  0  0
 24 26  1  0  0  0
 30 31  2  0  0  0
 30 32  1  0  0  0
 25 26  1  0  0  0
 26 27  1  0  0  0
 26 28  1  0  0  0
 32 33  1  0  0  0
 33 34  1  0  0  0
M  END
> <minimizedAffinity>
-7.29876

$$$$
ZINC000000009073


 22 25  0  0  0  0  0  0  0  0999 V2000
   32.1860   -3.7928   21.0451 O   0  0  0  0  0  0  0  0  0  0  0  0
   31.9721   -3.1561   19.8491 C   0  0  0  0  0  0  0  0  0  0  0  0
   33.0184   -2.5800   19.1096 C   0  0  0  0  0  0  0  0  0  0  0  0
   30.6473   -3.1082   19.3960 C   0  0  0  0  0  0  0  0  0  0  0  0
   34.4559   -2.5510   19.5139 C   0  0  0  0  0  0  0  0  0  0  0  0
   32.6549   -1.9603   17.8797 C   0  0  0  0  0  0  0  0  0  0  0  0
   29.6643   -3.7578   20.0916 O   0  0  0  0  0  0  0  0  0  0  0  0
   30.3039   -2.4441   18.2322 C   0  0  0  0  0  0  0  0  0  0  0  0
   35.4486   -2.3231   18.5239 C   0  0  0  0  0  0  0  0  0  0  0  0
   34.8906   -2.6538   20.8456 C   0  0  0  0  0  0  0  0  0  0  0  0
   31.3119   -1.8683   17.4687 C   0  0  0  0  0  0  0  0  0  0  0  0
   33.7395   -1.3761   16.9908 C   0  0  0  0  0  0  0  0  0  0  0  0
   36.8005   -2.1505   18.8784 C   0  0  0  0  0  0  0  0  0  0  0  0
   34.9996   -2.2595   17.0666 C   0  0  0  0  0  0  0  0  0  0  0  0
   36.2426   -2.5493   21.1878 C   0  0  0  0  0  0  0  0  0  0  0  0
   37.1953   -2.2947   20.2089 C   0  0  0  0  0  0  0  0  0  0  0  0
   37.8020   -1.7786   17.8216 C   0  0  0  0  0  0  0  0  0  0  0  0
   36.0002   -1.8042   16.0685 N   0  0  0  0  0  0  0  0  0  0  0  0
   37.1006   -1.0439   16.6744 C   0  0  0  0  0  0  0  0  0  0  0  0
   36.4984   -2.9282   15.2739 C   0  0  0  0  0  0  0  0  0  0  0  0
   31.4398   -3.5318   21.6165 H   0  0  0  0  0  0  0  0  0  0  0  0
   30.0634   -4.6000   20.3805 H   0  0  0  0  0  0  0  0  0  0  0  0
  1  2  1  0  0  0
  1 21  1  0  0  0
  2  3  2  0  0  0
  2  4  1  0  0  0
  3  5  1  0  0  0
  3  6  1  0  0  0
  4  7  1  0  0  0
  4  8  2  0  0  0
  5  9  2  0  0  0
  5 10  1  0  0  0
  6 11  2  0  0  0
  6 12  1  0  0  0
  7 22  1  0  0  0
  8 11  1  0  0  0
  9 13  1  0  0  0
  9 14  1  0  0  0
 10 15  2  0  0  0
 12 14  1  0  0  0
 13 16  2  0  0  0
 13 17  1  0  0  0
 14 18  1  0  0  0
 15 16  1  0  0  0
 17 19  1  0  0  0
 18 20  1  0  0  0
 18 19  1  0  0  0
M  END
> <minimizedAffinity>
-8.29553

$$$$
ZINC000001482113


 14 13  0  0  0  0  0  0  0  0999 V2000
   28.7074   -2.3514   27.5169 C   0  0  0  0  0  0  0  0  0  0  0  0
   30.0743   -2.7379   27.0972 N   0  0  0  0  0  0  0  0  0  0  0  0
   30.4526   -3.3775   27.8004 H   0  0  0  0  0  0  0  0  0  0  0  0
   29.9966   -3.3200   26.2586 H   0  0  0  0  0  0  0  0  0  0  0  0
   27.8980   -4.3498   28.7077 O   0  0  0  0  0  0  0  0  0  0  0  0
   27.8555   -3.6079   27.7377 C   0  0  0  0  0  0  0  0  0  0  0  0
   26.9798   -3.8375   26.7404 O   0  0  0  0  0  0  0  0  0  0  0  0
   26.5101   -4.6531   27.0152 H   0  0  0  0  0  0  0  0  0  0  0  0
   28.0619   -1.4446   26.4655 C   0  0  0  0  0  0  0  0  0  0  0  0
   27.3117   -0.2631   27.0826 C   0  0  0  0  0  0  0  0  0  0  0  0
   25.9506   -0.6753   27.5701 C   0  0  0  0  0  0  0  0  0  0  0  0
   25.6392   -1.0186   28.6974 O   0  0  0  0  0  0  0  0  0  0  0  0
   25.0303   -0.6387   26.5866 O   0  0  0  0  0  0  0  0  0  0  0  0
   24.2037   -0.9333   27.0225 H   0  0  0  0  0  0  0  0  0  0  0  0
  5  6  2  0  0  0
  6  7  1  0  0  0
  6  1  1  0  0  0
  7  8  1  0  0  0
  1  2  1  0  0  0
  1  9  1  0  0  0
  2  3  1  0  0  0
  2  4  1  0  0  0
  9 10  1  0  0  0
 10 11  1  0  0  0
 11 12  2  0  0  0
 11 13  1  0  0  0
 13 14  1  0  0  0
M  END
> <minimizedAffinity>
-5.27348

$$$$
ZINC000000895199


 19 19  0  0  0  0  0  0  0  0999 V2000
   28.8812   -1.8126   27.5189 C   0  0  0  0  0  0  0  0  0  0  0  0
   27.6933   -1.1483   27.1785 C   0  0  0  0  0  0  0  0  0  0  0  0
   28.8094   -3.0755   28.1321 C   0  0  0  0  0  0  0  0  0  0  0  0
   26.4694   -1.7465   27.4481 C   0  0  0  0  0  0  0  0  0  0  0  0
   27.5729   -3.6759   28.3826 C   0  0  0  0  0  0  0  0  0  0  0  0
   25.3241   -1.0582   27.1695 O   0  0  0  0  0  0  0  0  0  0  0  0
   26.4105   -3.0128   28.0209 C   0  0  0  0  0  0  0  0  0  0  0  0
   25.2099   -3.6338   28.2081 O   0  0  0  0  0  0  0  0  0  0  0  0
   24.7048   -1.2663   27.8931 H   0  0  0  0  0  0  0  0  0  0  0  0
   24.6627   -3.3955   27.4371 H   0  0  0  0  0  0  0  0  0  0  0  0
   30.2214   -1.1753   27.2318 C   0  0  0  0  0  0  0  0  0  0  0  0
   31.4231   -2.0569   27.6139 C   0  0  0  0  0  0  0  0  0  0  0  0
   32.3110   -1.4239   28.6177 N   0  0  0  0  0  0  0  0  0  0  0  0
   32.7557   -0.6080   28.1925 H   0  0  0  0  0  0  0  0  0  0  0  0
   31.7457   -1.0773   29.3922 H   0  0  0  0  0  0  0  0  0  0  0  0
   32.8216   -1.5219   25.6592 O   0  0  0  0  0  0  0  0  0  0  0  0
   32.2176   -2.3387   26.3385 C   0  0  0  0  0  0  0  0  0  0  0  0
   32.1600   -3.6313   25.9577 O   0  0  0  0  0  0  0  0  0  0  0  0
   32.7201   -3.6626   25.1534 H   0  0  0  0  0  0  0  0  0  0  0  0
 16 17  2  0  0  0
 17 18  1  0  0  0
 17 12  1  0  0  0
 18 19  1  0  0  0
 12 13  1  0  0  0
 12 11  1  0  0  0
 13 14  1  0  0  0
 13 15  1  0  0  0
 11  1  1  0  0  0
  1  2  2  0  0  0
  1  3  1  0  0  0
  2  4  1  0  0  0
  3  5  2  0  0  0
  4  6  1  0  0  0
  4  7  2  0  0  0
  5  7  1  0  0  0
  6  9  1  0  0  0
  7  8  1  0  0  0
  8 10  1  0  0  0
M  END
> <minimizedAffinity>
-6.75517

$$$$
ZINC000000113355


 15 15  0  0  0  0  0  0  0  0999 V2000
   25.1279   -3.4029   28.3095 O   0  0  0  0  0  0  0  0  0  0  0  0
   26.3922   -2.9205   28.1368 C   0  0  0  0  0  0  0  0  0  0  0  0
   26.5321   -1.5701   27.8309 C   0  0  0  0  0  0  0  0  0  0  0  0
   27.5049   -3.7454   28.2583 C   0  0  0  0  0  0  0  0  0  0  0  0
   27.8072   -1.0149   27.6419 C   0  0  0  0  0  0  0  0  0  0  0  0
   28.7768   -3.2068   28.0694 C   0  0  0  0  0  0  0  0  0  0  0  0
   28.9270   -1.8523   27.7608 C   0  0  0  0  0  0  0  0  0  0  0  0
   25.1886   -4.3425   28.5473 H   0  0  0  0  0  0  0  0  0  0  0  0
   27.9415    0.4471   27.2809 C   0  0  0  0  0  0  0  0  0  0  0  0
   26.6795    1.1176   27.3860 O   0  0  0  0  0  0  0  0  0  0  0  0
   26.9191    2.0566   27.5241 H   0  0  0  0  0  0  0  0  0  0  0  0
   28.9643    1.1703   28.1895 C   0  0  0  0  0  0  0  0  0  0  0  0
   30.1841    1.4937   27.4175 N   0  0  0  0  0  0  0  0  0  0  0  0
   31.3771    1.1211   28.1702 C   0  0  0  0  0  0  0  0  0  0  0  0
   30.1715    0.9656   26.5430 H   0  0  0  0  0  0  0  0  0  0  0  0
  1  2  1  0  0  0
  1  8  1  0  0  0
  2  3  2  0  0  0
  2  4  1  0  0  0
  3  5  1  0  0  0
  4  6  2  0  0  0
  5  7  2  0  0  0
  5  9  1  0  0  0
  6  7  1  0  0  0
  9 10  1  0  0  0
  9 12  1  0  0  0
 10 11  1  0  0  0
 12 13  1  0  0  0
 13 14  1  0  0  0
 13 15  1  0  0  0
M  END
> <minimizedAffinity>
-6.10164

$$$$
ZINC000003812897


 24 27  0  0  0  0  0  0  0  0999 V2000
   25.0893   -3.8266   28.0040 O   0  0  0  0  0  0  0  0  0  0  0  0
   26.2714   -3.1539   28.0974 C   0  0  0  0  0  0  0  0  0  0  0  0
   26.3408   -1.7776   27.9218 C   0  0  0  0  0  0  0  0  0  0  0  0
   27.4128   -3.8849   28.3794 C   0  0  0  0  0  0  0  0  0  0  0  0
   27.5755   -1.1106   28.0295 C   0  0  0  0  0  0  0  0  0  0  0  0
   28.6446   -3.2344   28.4797 C   0  0  0  0  0  0  0  0  0  0  0  0
   28.7552   -1.8454   28.2855 C   0  0  0  0  0  0  0  0  0  0  0  0
   27.5891    0.3834   27.8091 C   0  0  0  0  0  0  0  0  0  0  0  0
   30.0968   -1.1309   28.4415 C   0  0  0  0  0  0  0  0  0  0  0  0
   28.8878    1.0626   28.2331 C   0  0  0  0  0  0  0  0  0  0  0  0
   30.0858    0.2547   27.7286 C   0  0  0  0  0  0  0  0  0  0  0  0
   31.3373   -1.9651   28.0258 C   0  0  0  0  0  0  0  0  0  0  0  0
   31.4187    0.9597   27.9913 C   0  0  0  0  0  0  0  0  0  0  0  0
   32.6664   -1.1966   28.1647 C   0  0  0  0  0  0  0  0  0  0  0  0
   32.6274    0.1647   27.4477 C   0  0  0  0  0  0  0  0  0  0  0  0
   31.6306    2.3622   27.4255 C   0  0  0  0  0  0  0  0  0  0  0  0
   33.7830    1.1661   27.7499 C   0  0  0  0  0  0  0  0  0  0  0  0
   32.5632   -0.0987   25.9133 C   0  0  0  0  0  0  0  0  0  0  0  0
   33.1625    2.5361   27.3675 C   0  0  0  0  0  0  0  0  0  0  0  0
   34.9258    0.9069   26.9466 O   0  0  0  0  0  0  0  0  0  0  0  0
   24.3874   -3.1875   27.8008 H   0  0  0  0  0  0  0  0  0  0  0  0
   35.6134    1.5374   27.2205 H   0  0  0  0  0  0  0  0  0  0  0  0
   34.2154    1.1809   29.1645 C   0  0  0  0  0  0  0  0  0  0  0  0
   34.5545    1.2041   30.3171 C   0  0  0  0  0  0  0  0  0  0  0  0
  1  2  1  0  0  0
  1 21  1  0  0  0
  2  3  2  0  0  0
  2  4  1  0  0  0
  3  5  1  0  0  0
  4  6  2  0  0  0
  5  7  2  0  0  0
  5  8  1  0  0  0
  6  7  1  0  0  0
  7  9  1  0  0  0
  8 10  1  0  0  0
  9 11  1  0  0  0
  9 12  1  0  0  0
 10 11  1  0  0  0
 11 13  1  0  0  0
 12 14  1  0  0  0
 13 15  1  0  0  0
 13 16  1  0  0  0
 14 15  1  0  0  0
 15 17  1  0  0  0
 15 18  1  0  0  0
 16 19  1  0  0  0
 17 20  1  0  0  0
 17 23  1  0  0  0
 17 19  1  0  0  0
 20 22  1  0  0  0
 23 24  3  0  0  0
M  END
> <minimizedAffinity>
-8.49011

$$$$
ZINC000001530637


 23 24  0  0  0  0  0  0  0  0999 V2000
   30.8713   -1.2135   28.3212 C   0  0  0  0  0  0  0  0  0  0  0  0
   29.4120   -1.6174   28.1571 C   0  0  0  0  0  0  0  0  0  0  0  0
   29.0363   -2.9678   28.0693 C   0  0  0  0  0  0  0  0  0  0  0  0
   28.4117   -0.6354   28.0793 C   0  0  0  0  0  0  0  0  0  0  0  0
   27.6979   -3.3256   27.9012 C   0  0  0  0  0  0  0  0  0  0  0  0
   27.0733   -0.9957   27.9110 C   0  0  0  0  0  0  0  0  0  0  0  0
   26.7174   -2.3395   27.8204 C   0  0  0  0  0  0  0  0  0  0  0  0
   31.2651   -0.5792   27.0942 O   0  0  0  0  0  0  0  0  0  0  0  0
   32.5413   -2.7227   23.7394 C   0  0  0  0  0  0  0  0  0  0  0  0
   32.8668   -3.2069   25.0151 C   0  0  0  0  0  0  0  0  0  0  0  0
   31.7917   -1.5437   23.6403 C   0  0  0  0  0  0  0  0  0  0  0  0
   32.4617   -2.5227   26.1678 C   0  0  0  0  0  0  0  0  0  0  0  0
   31.3905   -0.8635   24.7929 C   0  0  0  0  0  0  0  0  0  0  0  0
   31.7146   -1.3509   26.0613 C   0  0  0  0  0  0  0  0  0  0  0  0
   34.2475   -3.9194   22.5563 F   0  0  0  0  0  0  0  0  0  0  0  0
   32.9603   -3.4756   22.5012 C   0  0  0  0  0  0  0  0  0  0  0  0
   32.1944   -4.5799   22.2830 F   0  0  0  0  0  0  0  0  0  0  0  0
   32.8744   -2.7300   21.3641 F   0  0  0  0  0  0  0  0  0  0  0  0
   31.0674   -0.2327   29.4931 C   0  0  0  0  0  0  0  0  0  0  0  0
   32.4542   -0.3562   30.1311 C   0  0  0  0  0  0  0  0  0  0  0  0
   33.4309   -1.0148   29.2564 N   0  0  0  0  0  0  0  0  0  0  0  0
   34.5020   -0.1166   28.8396 C   0  0  0  0  0  0  0  0  0  0  0  0
   33.8490   -1.7937   29.7666 H   0  0  0  0  0  0  0  0  0  0  0  0
 15 16  1  0  0  0
 16 17  1  0  0  0
 16 18  1  0  0  0
 16  9  1  0  0  0
  9 10  2  0  0  0
  9 11  1  0  0  0
 10 12  1  0  0  0
 11 13  2  0  0  0
 12 14  2  0  0  0
 13 14  1  0  0  0
 14  8  1  0  0  0
  8  1  1  0  0  0
  1  2  1  0  0  0
  1 19  1  0  0  0
  2  3  2  0  0  0
  2  4  1  0  0  0
 19 20  1  0  0  0
  3  5  1  0  0  0
  4  6  2  0  0  0
 20 21  1  0  0  0
  5  7  2  0  0  0
  6  7  1  0  0  0
 21 22  1  0  0  0
 21 23  1  0  0  0
M  END
> <minimizedAffinity>
-8.07203

$$$$
ZINC000013550868


 13 13  0  0  0  0  0  0  0  0999 V2000
   25.2367   -3.4993   28.1465 O   0  0  0  0  0  0  0  0  0  0  0  0
   26.4282   -2.8375   28.1149 C   0  0  0  0  0  0  0  0  0  0  0  0
   26.4853   -1.4474   28.1011 C   0  0  0  0  0  0  0  0  0  0  0  0
   27.5909   -3.5989   28.1031 C   0  0  0  0  0  0  0  0  0  0  0  0
   27.7305   -0.8145   28.0683 C   0  0  0  0  0  0  0  0  0  0  0  0
   28.8326   -2.9614   28.0718 C   0  0  0  0  0  0  0  0  0  0  0  0
   28.9093   -1.5663   28.0370 C   0  0  0  0  0  0  0  0  0  0  0  0
   24.5188   -2.8459   28.1767 H   0  0  0  0  0  0  0  0  0  0  0  0
   30.1537   -0.9242   28.0227 N   0  0  0  0  0  0  0  0  0  0  0  0
   30.6558   -0.5874   26.8835 C   0  0  0  0  0  0  0  0  0  0  0  0
   31.8498    0.0214   26.9069 O   0  0  0  0  0  0  0  0  0  0  0  0
   30.1001   -0.7781   25.5099 C   0  0  0  0  0  0  0  0  0  0  0  0
   32.1145    0.0882   27.8403 H   0  0  0  0  0  0  0  0  0  0  0  0
  1  2  1  0  0  0
  1  8  1  0  0  0
  2  3  2  0  0  0
  2  4  1  0  0  0
  3  5  1  0  0  0
  4  6  2  0  0  0
  5  7  2  0  0  0
  6  7  1  0  0  0
  7  9  1  0  0  0
  9 10  2  0  0  0
 10 11  1  0  0  0
 10 12  1  0  0  0
 11 13  1  0  0  0
M  END
> <minimizedAffinity>
-6.03684

$$$$
ZINC000000039089


 17 17  0  0  0  0  0  0  0  0999 V2000
   25.4350   -1.1522   26.8685 O   0  0  0  0  0  0  0  0  0  0  0  0
   26.5493   -1.8551   27.2382 C   0  0  0  0  0  0  0  0  0  0  0  0
   26.3680   -3.0006   28.0067 C   0  0  0  0  0  0  0  0  0  0  0  0
   27.8272   -1.4512   26.8664 C   0  0  0  0  0  0  0  0  0  0  0  0
   25.1095   -3.3858   28.3702 O   0  0  0  0  0  0  0  0  0  0  0  0
   27.4531   -3.7622   28.4101 C   0  0  0  0  0  0  0  0  0  0  0  0
   28.9436   -2.2087   27.2615 C   0  0  0  0  0  0  0  0  0  0  0  0
   28.7400   -3.3665   28.0376 C   0  0  0  0  0  0  0  0  0  0  0  0
   25.7253   -0.4205   26.2964 H   0  0  0  0  0  0  0  0  0  0  0  0
   24.5261   -2.7103   27.9702 H   0  0  0  0  0  0  0  0  0  0  0  0
   30.3521   -1.7902   26.8984 C   0  0  0  0  0  0  0  0  0  0  0  0
   31.1685   -2.9352   26.6220 O   0  0  0  0  0  0  0  0  0  0  0  0
   31.8873   -2.5840   26.0568 H   0  0  0  0  0  0  0  0  0  0  0  0
   30.3758   -0.8580   25.6630 C   0  0  0  0  0  0  0  0  0  0  0  0
   31.7742   -0.5815   25.2691 N   0  0  0  0  0  0  0  0  0  0  0  0
   32.3565    0.4377   26.1363 C   0  0  0  0  0  0  0  0  0  0  0  0
   32.3217   -1.4393   25.3624 H   0  0  0  0  0  0  0  0  0  0  0  0
  1  2  1  0  0  0
  1  9  1  0  0  0
  2  3  2  0  0  0
  2  4  1  0  0  0
  3  5  1  0  0  0
  3  6  1  0  0  0
  4  7  2  0  0  0
  5 10  1  0  0  0
  6  8  2  0  0  0
  7 11  1  0  0  0
  7  8  1  0  0  0
 11 12  1  0  0  0
 11 14  1  0  0  0
 12 13  1  0  0  0
 14 15  1  0  0  0
 15 16  1  0  0  0
 15 17  1  0  0  0
M  END
> <minimizedAffinity>
-6.46370

$$$$
ZINC000006661227


 15 15  0  0  0  0  0  0  0  0999 V2000
   26.1006   -0.9250   26.7454 C   0  0  0  0  0  0  0  0  0  0  0  0
   24.6630   -0.6467   26.4941 N   0  0  0  0  0  0  0  0  0  0  0  0
   24.1675   -0.7025   27.3869 H   0  0  0  0  0  0  0  0  0  0  0  0
   24.5924    0.3428   26.2235 H   0  0  0  0  0  0  0  0  0  0  0  0
   25.7569   -2.4851   28.6193 O   0  0  0  0  0  0  0  0  0  0  0  0
   26.2393   -2.2289   27.5263 C   0  0  0  0  0  0  0  0  0  0  0  0
   27.0308   -3.1309   26.9084 O   0  0  0  0  0  0  0  0  0  0  0  0
   27.0015   -3.9074   27.5063 H   0  0  0  0  0  0  0  0  0  0  0  0
   26.8016    0.1793   27.5500 C   0  0  0  0  0  0  0  0  0  0  0  0
   28.2433    0.3216   27.2024 C   0  0  0  0  0  0  0  0  0  0  0  0
   28.8421   -0.5610   26.3312 N   0  0  0  0  0  0  0  0  0  0  0  0
   29.1585    1.2556   27.6375 C   0  0  0  0  0  0  0  0  0  0  0  0
   30.0923   -0.1711   26.2398 C   0  0  0  0  0  0  0  0  0  0  0  0
   30.3312    0.9270   27.0151 N   0  0  0  0  0  0  0  0  0  0  0  0
   31.2170    1.4049   27.1075 H   0  0  0  0  0  0  0  0  0  0  0  0
  5  6  2  0  0  0
  6  7  1  0  0  0
  6  1  1  0  0  0
  7  8  1  0  0  0
  1  2  1  0  0  0
  1  9  1  0  0  0
  2  3  1  0  0  0
  2  4  1  0  0  0
  9 10  1  0  0  0
 10 11  1  0  0  0
 10 12  2  0  0  0
 11 13  2  0  0  0
 12 14  1  0  0  0
 13 14  1  0  0  0
 14 15  1  0  0  0
M  END
> <minimizedAffinity>
-5.27660

$$$$
ZINC000100009278


 22 24  0  0  0  0  0  0  0  0999 V2000
   31.6420   -3.0627   26.2486 O   0  0  0  0  0  0  0  0  0  0  0  0
   30.9425   -2.4718   27.0644 C   0  0  0  0  0  0  0  0  0  0  0  0
   31.4211   -1.6820   28.0666 O   0  0  0  0  0  0  0  0  0  0  0  0
   32.7183   -1.0774   27.8701 C   0  0  0  0  0  0  0  0  0  0  0  0
   33.4147   -1.0242   29.2398 C   0  0  0  0  0  0  0  0  0  0  0  0
   32.5565    0.3083   27.2227 C   0  0  0  0  0  0  0  0  0  0  0  0
   33.0739    0.2379   30.0547 C   0  0  0  0  0  0  0  0  0  0  0  0
   32.3036    1.4353   28.2429 C   0  0  0  0  0  0  0  0  0  0  0  0
   33.3192    1.4697   29.2988 N   0  0  0  0  0  0  0  0  0  0  0  0
   31.5670    0.3807   30.3006 C   0  0  0  0  0  0  0  0  0  0  0  0
   31.0535    1.1753   29.0928 C   0  0  0  0  0  0  0  0  0  0  0  0
   34.6855    1.6995   28.8694 C   0  0  0  0  0  0  0  0  0  0  0  0
   29.4205   -2.4639   27.0476 C   0  0  0  0  0  0  0  0  0  0  0  0
   28.8431   -1.0583   27.1140 C   0  0  0  0  0  0  0  0  0  0  0  0
   27.9220   -0.7286   28.1200 C   0  0  0  0  0  0  0  0  0  0  0  0
   29.2056   -0.0736   26.1807 C   0  0  0  0  0  0  0  0  0  0  0  0
   27.3777    0.5547   28.1910 C   0  0  0  0  0  0  0  0  0  0  0  0
   28.6594    1.2087   26.2552 C   0  0  0  0  0  0  0  0  0  0  0  0
   27.7465    1.5225   27.2595 C   0  0  0  0  0  0  0  0  0  0  0  0
   28.8782   -3.3363   28.1884 C   0  0  0  0  0  0  0  0  0  0  0  0
   27.8486   -4.2101   27.7234 O   0  0  0  0  0  0  0  0  0  0  0  0
   28.2887   -4.8907   27.1751 H   0  0  0  0  0  0  0  0  0  0  0  0
  1  2  2  0  0  0
  2  3  1  0  0  0
  2 13  1  0  0  0
  3  4  1  0  0  0
 13 14  1  0  0  0
 13 20  1  0  0  0
  4  5  1  0  0  0
  4  6  1  0  0  0
 14 15  2  0  0  0
 14 16  1  0  0  0
 20 21  1  0  0  0
  5  7  1  0  0  0
  6  8  1  0  0  0
 15 17  1  0  0  0
 16 18  2  0  0  0
 21 22  1  0  0  0
  7  9  1  0  0  0
  7 10  1  0  0  0
  8 11  1  0  0  0
  8  9  1  0  0  0
 17 19  2  0  0  0
 18 19  1  0  0  0
  9 12  1  0  0  0
 10 11  1  0  0  0
M  END
> <minimizedAffinity>
-7.64352

$$$$
ZINC000100009280


 22 24  0  0  0  0  0  0  0  0999 V2000
   30.5973   -0.8854   24.8217 O   0  0  0  0  0  0  0  0  0  0  0  0
   30.1837   -0.2118   25.7565 C   0  0  0  0  0  0  0  0  0  0  0  0
   30.9518    0.6234   26.5156 O   0  0  0  0  0  0  0  0  0  0  0  0
   32.3547    0.2928   26.6296 C   0  0  0  0  0  0  0  0  0  0  0  0
   32.4703   -0.9169   27.5714 C   0  0  0  0  0  0  0  0  0  0  0  0
   33.1525    1.5151   27.1174 C   0  0  0  0  0  0  0  0  0  0  0  0
   32.5809   -0.5315   29.0586 C   0  0  0  0  0  0  0  0  0  0  0  0
   33.1993    1.6493   28.6518 C   0  0  0  0  0  0  0  0  0  0  0  0
   33.6648    0.4227   29.3052 N   0  0  0  0  0  0  0  0  0  0  0  0
   31.3843    0.3030   29.5313 C   0  0  0  0  0  0  0  0  0  0  0  0
   31.7987    1.7551   29.2646 C   0  0  0  0  0  0  0  0  0  0  0  0
   35.0030   -0.0188   28.9627 C   0  0  0  0  0  0  0  0  0  0  0  0
   28.7417   -0.1729   26.2360 C   0  0  0  0  0  0  0  0  0  0  0  0
   28.3500   -1.4755   26.9160 C   0  0  0  0  0  0  0  0  0  0  0  0
   27.1599   -2.1258   26.5549 C   0  0  0  0  0  0  0  0  0  0  0  0
   29.1709   -2.0652   27.8905 C   0  0  0  0  0  0  0  0  0  0  0  0
   26.8017   -3.3354   27.1525 C   0  0  0  0  0  0  0  0  0  0  0  0
   28.8096   -3.2747   28.4863 C   0  0  0  0  0  0  0  0  0  0  0  0
   27.6262   -3.9095   28.1170 C   0  0  0  0  0  0  0  0  0  0  0  0
   28.5248    1.0587   27.1277 C   0  0  0  0  0  0  0  0  0  0  0  0
   27.1371    1.3744   27.2597 O   0  0  0  0  0  0  0  0  0  0  0  0
   26.7901    1.5912   26.3783 H   0  0  0  0  0  0  0  0  0  0  0  0
  1  2  2  0  0  0
  2  3  1  0  0  0
  2 13  1  0  0  0
  3  4  1  0  0  0
 13 14  1  0  0  0
 13 20  1  0  0  0
  4  5  1  0  0  0
  4  6  1  0  0  0
 14 15  2  0  0  0
 14 16  1  0  0  0
 20 21  1  0  0  0
  5  7  1  0  0  0
  6  8  1  0  0  0
 15 17  1  0  0  0
 16 18  2  0  0  0
 21 22  1  0  0  0
  7  9  1  0  0  0
  7 10  1  0  0  0
  8 11  1  0  0  0
  8  9  1  0  0  0
 17 19  2  0  0  0
 18 19  1  0  0  0
  9 12  1  0  0  0
 10 11  1  0  0  0
M  END
> <minimizedAffinity>
-8.04562

$$$$
ZINC000003581355


 12 11  0  0  0  0  0  0  0  0999 V2000
   26.4679   -1.3527   27.0334 C   0  0  0  0  0  0  0  0  0  0  0  0
   25.1509   -0.7426   26.7240 N   0  0  0  0  0  0  0  0  0  0  0  0
   24.6240   -1.4313   26.1789 H   0  0  0  0  0  0  0  0  0  0  0  0
   24.6183   -0.6637   27.5907 H   0  0  0  0  0  0  0  0  0  0  0  0
   25.7437   -3.0783   28.6474 O   0  0  0  0  0  0  0  0  0  0  0  0
   26.3055   -2.7712   27.6085 C   0  0  0  0  0  0  0  0  0  0  0  0
   26.8991   -3.7275   26.8568 O   0  0  0  0  0  0  0  0  0  0  0  0
   26.7287   -4.5532   27.3576 H   0  0  0  0  0  0  0  0  0  0  0  0
   27.3343   -0.4613   27.9593 C   0  0  0  0  0  0  0  0  0  0  0  0
   28.7391   -1.0593   28.1157 C   0  0  0  0  0  0  0  0  0  0  0  0
   27.3986    1.0089   27.4872 C   0  0  0  0  0  0  0  0  0  0  0  0
   28.6256    1.3160   26.6380 C   0  0  0  0  0  0  0  0  0  0  0  0
  5  6  2  0  0  0
  6  7  1  0  0  0
  6  1  1  0  0  0
  7  8  1  0  0  0
  1  2  1  0  0  0
  1  9  1  0  0  0
  2  3  1  0  0  0
  2  4  1  0  0  0
  9 11  1  0  0  0
  9 10  1  0  0  0
 11 12  1  0  0  0
M  END
> <minimizedAffinity>
-5.08437

$$$$
ZINC000003645145


 12 11  0  0  0  0  0  0  0  0999 V2000
   26.4414   -0.9630   27.1674 C   0  0  0  0  0  0  0  0  0  0  0  0
   25.1072   -0.6564   26.6162 N   0  0  0  0  0  0  0  0  0  0  0  0
   25.2190   -0.3318   25.6532 H   0  0  0  0  0  0  0  0  0  0  0  0
   24.5353   -1.4959   26.5799 H   0  0  0  0  0  0  0  0  0  0  0  0
   28.4642    0.2377   26.4185 O   0  0  0  0  0  0  0  0  0  0  0  0
   27.3660    0.2427   26.9550 C   0  0  0  0  0  0  0  0  0  0  0  0
   26.8706    1.3821   27.4816 O   0  0  0  0  0  0  0  0  0  0  0  0
   27.5528    2.0514   27.2638 H   0  0  0  0  0  0  0  0  0  0  0  0
   27.0883   -2.1915   26.5069 C   0  0  0  0  0  0  0  0  0  0  0  0
   27.3646   -3.3923   27.4344 C   0  0  0  0  0  0  0  0  0  0  0  0
   26.2542   -3.6030   28.4642 C   0  0  0  0  0  0  0  0  0  0  0  0
   28.7029   -3.1912   28.1521 C   0  0  0  0  0  0  0  0  0  0  0  0
  5  6  2  0  0  0
  6  7  1  0  0  0
  6  1  1  0  0  0
  7  8  1  0  0  0
  1  2  1  0  0  0
  1  9  1  0  0  0
  2  3  1  0  0  0
  2  4  1  0  0  0
  9 10  1  0  0  0
 10 11  1  0  0  0
 10 12  1  0  0  0
M  END
> <minimizedAffinity>
-5.23451

$$$$
ZINC000035024346


 19 20  0  0  0  0  0  0  0  0999 V2000
   31.0357    1.0384   27.5507 S   0  0  0  0  0  0  0  0  0  0  0  0
   29.5856    0.0547   28.0363 C   0  0  0  0  0  0  0  0  0  0  0  0
   32.1188    0.1996   28.7347 C   0  0  0  0  0  0  0  0  0  0  0  0
   30.1406   -1.3461   28.3227 C   0  0  0  0  0  0  0  0  0  0  0  0
   31.6183   -1.2426   28.8286 C   0  0  0  0  0  0  0  0  0  0  0  0
   30.3185   -2.1790   27.1600 N   0  0  0  0  0  0  0  0  0  0  0  0
   32.4616   -2.1333   27.9388 N   0  0  0  0  0  0  0  0  0  0  0  0
   31.5985   -2.5490   27.0732 C   0  0  0  0  0  0  0  0  0  0  0  0
   31.9274   -3.3595   26.0771 O   0  0  0  0  0  0  0  0  0  0  0  0
   29.6049   -2.4724   26.5124 H   0  0  0  0  0  0  0  0  0  0  0  0
   32.8818   -3.5217   26.1492 H   0  0  0  0  0  0  0  0  0  0  0  0
   28.4449    0.0879   27.0130 C   0  0  0  0  0  0  0  0  0  0  0  0
   27.0979    0.5014   27.6191 C   0  0  0  0  0  0  0  0  0  0  0  0
   26.1191   -0.6743   27.6442 C   0  0  0  0  0  0  0  0  0  0  0  0
   26.7056   -1.9036   26.9526 C   0  0  0  0  0  0  0  0  0  0  0  0
   26.7173   -3.1006   27.8642 C   0  0  0  0  0  0  0  0  0  0  0  0
   27.6668   -3.8104   28.1466 O   0  0  0  0  0  0  0  0  0  0  0  0
   25.5015   -3.3398   28.3943 O   0  0  0  0  0  0  0  0  0  0  0  0
   25.6387   -4.1302   28.9576 H   0  0  0  0  0  0  0  0  0  0  0  0
  1  2  1  0  0  0
  1  3  1  0  0  0
  2  4  1  0  0  0
  2 12  1  0  0  0
  3  5  1  0  0  0
  4  6  1  0  0  0
  4  5  1  0  0  0
 12 13  1  0  0  0
  5  7  1  0  0  0
  6  8  1  0  0  0
  6 10  1  0  0  0
 13 14  1  0  0  0
  7  8  2  0  0  0
  8  9  1  0  0  0
 14 15  1  0  0  0
  9 11  1  0  0  0
 15 16  1  0  0  0
 16 17  2  0  0  0
 16 18  1  0  0  0
 18 19  1  0  0  0
M  END
> <minimizedAffinity>
-6.35846

$$$$
ZINC000000156395


 19 19  0  0  0  0  0  0  0  0999 V2000
   31.0599   -0.9812   26.7108 C   0  0  0  0  0  0  0  0  0  0  0  0
   32.0121   -1.9904   26.2437 N   0  0  0  0  0  0  0  0  0  0  0  0
   32.2517   -2.1828   24.9057 C   0  0  0  0  0  0  0  0  0  0  0  0
   31.6893   -1.5491   24.0197 O   0  0  0  0  0  0  0  0  0  0  0  0
   33.3003   -3.2213   24.6166 C   0  0  0  0  0  0  0  0  0  0  0  0
   32.6097   -2.4413   26.9242 H   0  0  0  0  0  0  0  0  0  0  0  0
   32.9782    0.5570   26.6840 O   0  0  0  0  0  0  0  0  0  0  0  0
   31.7734    0.3665   26.7684 C   0  0  0  0  0  0  0  0  0  0  0  0
   30.9365    1.3978   27.0042 O   0  0  0  0  0  0  0  0  0  0  0  0
   31.5169    2.1876   26.9828 H   0  0  0  0  0  0  0  0  0  0  0  0
   30.5118   -1.2969   28.1080 C   0  0  0  0  0  0  0  0  0  0  0  0
   29.0961   -1.8273   28.1003 C   0  0  0  0  0  0  0  0  0  0  0  0
   28.0039   -0.9504   28.0210 C   0  0  0  0  0  0  0  0  0  0  0  0
   28.8552   -3.2067   28.1784 C   0  0  0  0  0  0  0  0  0  0  0  0
   26.6965   -1.4424   28.0073 C   0  0  0  0  0  0  0  0  0  0  0  0
   27.5488   -3.6979   28.1665 C   0  0  0  0  0  0  0  0  0  0  0  0
   26.4809   -2.8140   28.0790 C   0  0  0  0  0  0  0  0  0  0  0  0
   25.2219   -3.3376   28.0676 O   0  0  0  0  0  0  0  0  0  0  0  0
   24.5853   -2.6078   27.9941 H   0  0  0  0  0  0  0  0  0  0  0  0
  7  8  2  0  0  0
  8  9  1  0  0  0
  8  1  1  0  0  0
  9 10  1  0  0  0
  1  2  1  0  0  0
  1 11  1  0  0  0
  2  3  1  0  0  0
  2  6  1  0  0  0
 11 12  1  0  0  0
  3  4  2  0  0  0
  3  5  1  0  0  0
 12 13  2  0  0  0
 12 14  1  0  0  0
 13 15  1  0  0  0
 14 16  2  0  0  0
 15 17  2  0  0  0
 16 17  1  0  0  0
 17 18  1  0  0  0
 18 19  1  0  0  0
M  END
> <minimizedAffinity>
-7.00702

$$$$
ZINC000004474564


 25 24  0  0  0  0  0  0  0  0999 V2000
   27.0151    0.3713   26.9585 C   0  0  0  0  0  0  0  0  0  0  0  0
   26.2298   -0.6723   27.2765 C   0  0  0  0  0  0  0  0  0  0  0  0
   27.9975    1.0891   27.8378 C   0  0  0  0  0  0  0  0  0  0  0  0
   30.5365    1.4096   27.7894 C   0  0  0  0  0  0  0  0  0  0  0  0
   29.3604    1.1161   27.2087 C   0  0  0  0  0  0  0  0  0  0  0  0
   30.7897    1.7876   29.2199 C   0  0  0  0  0  0  0  0  0  0  0  0
   32.5393    0.3348   30.3845 C   0  0  0  0  0  0  0  0  0  0  0  0
   31.2775    0.6080   30.0128 C   0  0  0  0  0  0  0  0  0  0  0  0
   33.7758    1.1227   30.0523 C   0  0  0  0  0  0  0  0  0  0  0  0
   34.4217    0.6222   28.7643 C   0  0  0  0  0  0  0  0  0  0  0  0
   33.7443    2.1880   27.0124 O   0  0  0  0  0  0  0  0  0  0  0  0
   34.5847    1.7384   27.7716 C   0  0  0  0  0  0  0  0  0  0  0  0
   35.8359    2.2403   27.7809 O   0  0  0  0  0  0  0  0  0  0  0  0
   35.8143    2.9466   27.1009 H   0  0  0  0  0  0  0  0  0  0  0  0
   26.1656   -1.4093   28.5827 C   0  0  0  0  0  0  0  0  0  0  0  0
   26.3359   -2.8883   28.3848 C   0  0  0  0  0  0  0  0  0  0  0  0
   27.3490   -3.5197   27.7664 C   0  0  0  0  0  0  0  0  0  0  0  0
   28.5852   -2.9026   27.1784 C   0  0  0  0  0  0  0  0  0  0  0  0
   29.5543   -2.4986   28.2515 C   0  0  0  0  0  0  0  0  0  0  0  0
   30.8884   -2.3659   28.1522 C   0  0  0  0  0  0  0  0  0  0  0  0
   31.7535   -2.5863   26.9449 C   0  0  0  0  0  0  0  0  0  0  0  0
   32.4265   -1.3097   26.5290 C   0  0  0  0  0  0  0  0  0  0  0  0
   32.2984   -0.6498   25.3659 C   0  0  0  0  0  0  0  0  0  0  0  0
   31.4150   -1.0056   24.2054 C   0  0  0  0  0  0  0  0  0  0  0  0
   32.0783   -2.0309   23.3001 C   0  0  0  0  0  0  0  0  0  0  0  0
 11 12  2  0  0  0
 12 13  1  0  0  0
 12 10  1  0  0  0
 13 14  1  0  0  0
 10  9  1  0  0  0
  9  7  1  0  0  0
  7  8  2  0  0  0
  8  6  1  0  0  0
  6  4  1  0  0  0
  4  5  2  0  0  0
  5  3  1  0  0  0
  3  1  1  0  0  0
  1  2  2  0  0  0
  2 15  1  0  0  0
 15 16  1  0  0  0
 16 17  2  0  0  0
 17 18  1  0  0  0
 18 19  1  0  0  0
 19 20  2  0  0  0
 20 21  1  0  0  0
 21 22  1  0  0  0
 22 23  2  0  0  0
 23 24  1  0  0  0
 24 25  1  0  0  0
M  END
> <minimizedAffinity>
-7.73994

$$$$
ZINC000004474603


 23 22  0  0  0  0  0  0  0  0999 V2000
   30.9732    0.5696   29.5101 C   0  0  0  0  0  0  0  0  0  0  0  0
   31.1903   -0.7483   29.3575 C   0  0  0  0  0  0  0  0  0  0  0  0
   29.7180    1.3415   29.2192 C   0  0  0  0  0  0  0  0  0  0  0  0
   28.4397    1.2990   27.0012 C   0  0  0  0  0  0  0  0  0  0  0  0
   29.5390    1.5269   27.7394 C   0  0  0  0  0  0  0  0  0  0  0  0
   27.1077    0.7878   27.4704 C   0  0  0  0  0  0  0  0  0  0  0  0
   26.8807   -0.6549   27.0175 C   0  0  0  0  0  0  0  0  0  0  0  0
   26.6367   -1.5763   28.2111 C   0  0  0  0  0  0  0  0  0  0  0  0
   27.2432   -3.6481   27.0581 O   0  0  0  0  0  0  0  0  0  0  0  0
   26.5009   -3.0130   27.7860 C   0  0  0  0  0  0  0  0  0  0  0  0
   25.4066   -3.5910   28.3202 O   0  0  0  0  0  0  0  0  0  0  0  0
   25.4314   -4.5080   27.9744 H   0  0  0  0  0  0  0  0  0  0  0  0
   30.2332   -1.7942   28.8623 C   0  0  0  0  0  0  0  0  0  0  0  0
   30.8699   -2.6422   27.7986 C   0  0  0  0  0  0  0  0  0  0  0  0
   30.8452   -2.4622   26.4663 C   0  0  0  0  0  0  0  0  0  0  0  0
   30.1667   -1.3674   25.6948 C   0  0  0  0  0  0  0  0  0  0  0  0
   31.1087   -0.7287   24.7143 C   0  0  0  0  0  0  0  0  0  0  0  0
   32.2483   -0.0685   24.9828 C   0  0  0  0  0  0  0  0  0  0  0  0
   32.8403    0.2279   26.3313 C   0  0  0  0  0  0  0  0  0  0  0  0
   32.9166    1.7108   26.5608 C   0  0  0  0  0  0  0  0  0  0  0  0
   33.8242    2.3930   27.2786 C   0  0  0  0  0  0  0  0  0  0  0  0
   34.9868    1.8414   28.0518 C   0  0  0  0  0  0  0  0  0  0  0  0
   34.5619    1.3923   29.4412 C   0  0  0  0  0  0  0  0  0  0  0  0
  9 10  2  0  0  0
 10 11  1  0  0  0
 10  8  1  0  0  0
 11 12  1  0  0  0
  8  7  1  0  0  0
  7  6  1  0  0  0
  6  4  1  0  0  0
  4  5  2  0  0  0
  5  3  1  0  0  0
  3  1  1  0  0  0
  1  2  2  0  0  0
  2 13  1  0  0  0
 13 14  1  0  0  0
 14 15  2  0  0  0
 15 16  1  0  0  0
 16 17  1  0  0  0
 17 18  2  0  0  0
 18 19  1  0  0  0
 19 20  1  0  0  0
 20 21  2  0  0  0
 21 22  1  0  0  0
 22 23  1  0  0  0
M  END
> <minimizedAffinity>
-7.29307

$$$$
ZINC000012503177


 28 28  0  0  0  0  0  0  0  0999 V2000
   25.5952   -0.6665   28.4268 O   0  0  0  0  0  0  0  0  0  0  0  0
   26.4794   -1.4693   28.1518 C   0  0  0  0  0  0  0  0  0  0  0  0
   27.8799   -1.0770   27.7147 C   0  0  0  0  0  0  0  0  0  0  0  0
   26.2820   -2.9552   28.2245 C   0  0  0  0  0  0  0  0  0  0  0  0
   28.4447   -2.4373   27.2598 C   0  0  0  0  0  0  0  0  0  0  0  0
   27.7118   -3.4628   28.1469 C   0  0  0  0  0  0  0  0  0  0  0  0
   27.7516   -4.7532   27.5530 O   0  0  0  0  0  0  0  0  0  0  0  0
   27.2860   -5.3704   28.1439 H   0  0  0  0  0  0  0  0  0  0  0  0
   29.9429   -2.5417   27.4299 C   0  0  0  0  0  0  0  0  0  0  0  0
   30.8245   -2.3403   26.4371 C   0  0  0  0  0  0  0  0  0  0  0  0
   32.3140   -2.4323   26.5970 C   0  0  0  0  0  0  0  0  0  0  0  0
   32.7695   -3.4890   25.7620 O   0  0  0  0  0  0  0  0  0  0  0  0
   32.2040   -4.2583   25.9477 H   0  0  0  0  0  0  0  0  0  0  0  0
   32.9960   -1.1237   26.1861 C   0  0  0  0  0  0  0  0  0  0  0  0
   31.9829   -0.0619   25.7416 C   0  0  0  0  0  0  0  0  0  0  0  0
   32.4559    1.3439   26.1194 C   0  0  0  0  0  0  0  0  0  0  0  0
   33.7634    1.3507   26.9143 C   0  0  0  0  0  0  0  0  0  0  0  0
   33.9317    2.5788   27.7956 C   0  0  0  0  0  0  0  0  0  0  0  0
   27.8149   -0.0017   26.6241 C   0  0  0  0  0  0  0  0  0  0  0  0
   28.6760    1.2443   26.8470 C   0  0  0  0  0  0  0  0  0  0  0  0
   28.8356    1.6990   28.3010 C   0  0  0  0  0  0  0  0  0  0  0  0
   30.2932    1.7562   28.7642 C   0  0  0  0  0  0  0  0  0  0  0  0
   30.5832    0.8342   29.9523 C   0  0  0  0  0  0  0  0  0  0  0  0
   31.4454   -0.3707   29.5908 C   0  0  0  0  0  0  0  0  0  0  0  0
   32.8680   -0.1586   30.0224 C   0  0  0  0  0  0  0  0  0  0  0  0
   33.2848    0.7545   30.7142 O   0  0  0  0  0  0  0  0  0  0  0  0
   33.7012   -1.1102   29.5612 O   0  0  0  0  0  0  0  0  0  0  0  0
   34.5775   -0.8470   29.9137 H   0  0  0  0  0  0  0  0  0  0  0  0
  1  2  2  0  0  0
  2  3  1  0  0  0
  2  4  1  0  0  0
  3  5  1  0  0  0
  3 19  1  0  0  0
  4  6  1  0  0  0
  5  9  1  0  0  0
  5  6  1  0  0  0
 19 20  1  0  0  0
  6  7  1  0  0  0
  9 10  2  0  0  0
 20 21  1  0  0  0
  7  8  1  0  0  0
 10 11  1  0  0  0
 21 22  1  0  0  0
 11 12  1  0  0  0
 11 14  1  0  0  0
 22 23  1  0  0  0
 12 13  1  0  0  0
 14 15  1  0  0  0
 23 24  1  0  0  0
 15 16  1  0  0  0
 24 25  1  0  0  0
 16 17  1  0  0  0
 25 26  2  0  0  0
 25 27  1  0  0  0
 17 18  1  0  0  0
 27 28  1  0  0  0
M  END
> <minimizedAffinity>
-6.94576

$$$$
ZINC000012495062


 28 29  0  0  0  0  0  0  0  0999 V2000
   28.0770    0.7304   28.4527 C   0  0  0  0  0  0  0  0  0  0  0  0
   29.3696    1.0584   28.3317 C   0  0  0  0  0  0  0  0  0  0  0  0
   30.1509    1.2136   29.4692 O   0  0  0  0  0  0  0  0  0  0  0  0
   30.1358    1.2563   27.0629 C   0  0  0  0  0  0  0  0  0  0  0  0
   31.4622    1.5834   29.0159 C   0  0  0  0  0  0  0  0  0  0  0  0
   31.5609    1.1735   27.5532 C   0  0  0  0  0  0  0  0  0  0  0  0
   32.5176    0.7778   29.7742 C   0  0  0  0  0  0  0  0  0  0  0  0
   32.1480   -0.2450   27.6133 C   0  0  0  0  0  0  0  0  0  0  0  0
   33.2006   -0.0966   28.7209 C   0  0  0  0  0  0  0  0  0  0  0  0
   33.5684   -1.3553   29.2629 O   0  0  0  0  0  0  0  0  0  0  0  0
   34.1565   -1.1916   30.0195 H   0  0  0  0  0  0  0  0  0  0  0  0
   32.7263   -0.6763   26.2870 C   0  0  0  0  0  0  0  0  0  0  0  0
   32.5860   -1.9156   25.7853 C   0  0  0  0  0  0  0  0  0  0  0  0
   33.1276   -2.4514   24.4846 C   0  0  0  0  0  0  0  0  0  0  0  0
   33.2734   -3.8615   24.6334 O   0  0  0  0  0  0  0  0  0  0  0  0
   33.7914   -4.0169   25.4402 H   0  0  0  0  0  0  0  0  0  0  0  0
   32.2813   -2.1778   23.2326 C   0  0  0  0  0  0  0  0  0  0  0  0
   32.4877   -3.1867   22.0933 C   0  0  0  0  0  0  0  0  0  0  0  0
   33.8383   -3.0422   21.3887 C   0  0  0  0  0  0  0  0  0  0  0  0
   33.6603   -2.5872   19.9393 C   0  0  0  0  0  0  0  0  0  0  0  0
   32.3789   -3.1394   19.3352 C   0  0  0  0  0  0  0  0  0  0  0  0
   27.1033    0.5137   27.3317 C   0  0  0  0  0  0  0  0  0  0  0  0
   26.6614   -0.9488   27.2594 C   0  0  0  0  0  0  0  0  0  0  0  0
   27.6658   -1.7903   26.4749 C   0  0  0  0  0  0  0  0  0  0  0  0
   29.2673   -2.5860   28.1457 O   0  0  0  0  0  0  0  0  0  0  0  0
   28.3622   -2.7911   27.3563 C   0  0  0  0  0  0  0  0  0  0  0  0
   27.8657   -4.0333   27.1908 O   0  0  0  0  0  0  0  0  0  0  0  0
   28.3928   -4.5826   27.8086 H   0  0  0  0  0  0  0  0  0  0  0  0
 25 26  2  0  0  0
 26 27  1  0  0  0
 26 24  1  0  0  0
 27 28  1  0  0  0
 24 23  1  0  0  0
 23 22  1  0  0  0
 22  1  1  0  0  0
  1  2  2  0  0  0
  2  3  1  0  0  0
  2  4  1  0  0  0
  3  5  1  0  0  0
  4  6  1  0  0  0
  5  7  1  0  0  0
  5  6  1  0  0  0
  6  8  1  0  0  0
  7  9  1  0  0  0
  8 12  1  0  0  0
  8  9  1  0  0  0
  9 10  1  0  0  0
 12 13  2  0  0  0
 10 11  1  0  0  0
 13 14  1  0  0  0
 14 15  1  0  0  0
 14 17  1  0  0  0
 15 16  1  0  0  0
 17 18  1  0  0  0
 18 19  1  0  0  0
 19 20  1  0  0  0
 20 21  1  0  0  0
M  END
> <minimizedAffinity>
-7.70167

$$$$
ZINC000013520815


 22 25  0  0  0  0  0  0  0  0999 V2000
   24.8115   -1.1167   26.5629 O   0  0  0  0  0  0  0  0  0  0  0  0
   26.0833   -0.9909   27.0371 C   0  0  0  0  0  0  0  0  0  0  0  0
   26.6295    0.2516   27.3328 C   0  0  0  0  0  0  0  0  0  0  0  0
   26.8229   -2.1465   27.2231 C   0  0  0  0  0  0  0  0  0  0  0  0
   27.9442    0.3485   27.8258 C   0  0  0  0  0  0  0  0  0  0  0  0
   28.1314   -2.0614   27.7034 C   0  0  0  0  0  0  0  0  0  0  0  0
   28.7238   -0.8187   27.9917 C   0  0  0  0  0  0  0  0  0  0  0  0
   28.4883    1.7283   28.1096 C   0  0  0  0  0  0  0  0  0  0  0  0
   30.1387   -0.7319   28.5604 C   0  0  0  0  0  0  0  0  0  0  0  0
   29.7873    1.7324   28.9096 C   0  0  0  0  0  0  0  0  0  0  0  0
   30.7487    0.6857   28.3437 C   0  0  0  0  0  0  0  0  0  0  0  0
   31.1111   -1.8415   28.0779 C   0  0  0  0  0  0  0  0  0  0  0  0
   32.1251    0.7327   29.0070 C   0  0  0  0  0  0  0  0  0  0  0  0
   32.5411   -1.6926   28.6322 C   0  0  0  0  0  0  0  0  0  0  0  0
   33.1037   -0.2870   28.3901 C   0  0  0  0  0  0  0  0  0  0  0  0
   32.9162    2.0373   28.9945 C   0  0  0  0  0  0  0  0  0  0  0  0
   34.3668    0.0560   29.2047 C   0  0  0  0  0  0  0  0  0  0  0  0
   33.3721   -0.0964   26.8756 C   0  0  0  0  0  0  0  0  0  0  0  0
   34.3669    1.5957   29.2615 C   0  0  0  0  0  0  0  0  0  0  0  0
   35.5657   -0.4274   28.6309 O   0  0  0  0  0  0  0  0  0  0  0  0
   24.4239   -0.2302   26.4830 H   0  0  0  0  0  0  0  0  0  0  0  0
   35.4942   -1.3956   28.5760 H   0  0  0  0  0  0  0  0  0  0  0  0
  1  2  1  0  0  0
  1 21  1  0  0  0
  2  3  2  0  0  0
  2  4  1  0  0  0
  3  5  1  0  0  0
  4  6  2  0  0  0
  5  7  2  0  0  0
  5  8  1  0  0  0
  6  7  1  0  0  0
  7  9  1  0  0  0
  8 10  1  0  0  0
  9 11  1  0  0  0
  9 12  1  0  0  0
 10 11  1  0  0  0
 11 13  1  0  0  0
 12 14  1  0  0  0
 13 15  1  0  0  0
 13 16  1  0  0  0
 14 15  1  0  0  0
 15 17  1  0  0  0
 15 18  1  0  0  0
 16 19  1  0  0  0
 17 20  1  0  0  0
 17 19  1  0  0  0
 20 22  1  0  0  0
M  END
> <minimizedAffinity>
-10.11225

$$$$
ZINC000000895360


 10 10  0  0  0  0  0  0  0  0999 V2000
   27.1650   -1.8947   26.6623 C   0  0  0  0  0  0  0  0  0  0  0  0
   28.4093   -1.0846   26.6375 N   0  0  0  0  0  0  0  0  0  0  0  0
   27.5265   -3.1823   27.3997 C   0  0  0  0  0  0  0  0  0  0  0  0
   29.1234   -1.4506   27.8643 C   0  0  0  0  0  0  0  0  0  0  0  0
   28.9239   -2.9490   27.9578 C   0  0  0  0  0  0  0  0  0  0  0  0
   28.9685   -1.3902   25.8408 H   0  0  0  0  0  0  0  0  0  0  0  0
   25.8687   -0.9561   28.5655 O   0  0  0  0  0  0  0  0  0  0  0  0
   26.0217   -1.1599   27.3722 C   0  0  0  0  0  0  0  0  0  0  0  0
   25.0825   -0.7302   26.4975 O   0  0  0  0  0  0  0  0  0  0  0  0
   24.4306   -0.2812   27.0768 H   0  0  0  0  0  0  0  0  0  0  0  0
  7  8  2  0  0  0
  8  9  1  0  0  0
  8  1  1  0  0  0
  9 10  1  0  0  0
  1  2  1  0  0  0
  1  3  1  0  0  0
  2  4  1  0  0  0
  2  6  1  0  0  0
  3  5  1  0  0  0
  4  5  1  0  0  0
M  END
> <minimizedAffinity>
-4.74524

$$$$
ZINC000000895034


 11 10  0  0  0  0  0  0  0  0999 V2000
   26.6031   -2.0248   27.8704 C   0  0  0  0  0  0  0  0  0  0  0  0
   25.4724   -2.9327   28.1947 N   0  0  0  0  0  0  0  0  0  0  0  0
   25.8768   -3.8692   28.2896 H   0  0  0  0  0  0  0  0  0  0  0  0
   24.8599   -2.9843   27.3784 H   0  0  0  0  0  0  0  0  0  0  0  0
   26.6071    0.3994   27.4664 O   0  0  0  0  0  0  0  0  0  0  0  0
   26.0848   -0.6974   27.3340 C   0  0  0  0  0  0  0  0  0  0  0  0
   24.8971   -0.8112   26.7049 O   0  0  0  0  0  0  0  0  0  0  0  0
   24.7108    0.0993   26.3913 H   0  0  0  0  0  0  0  0  0  0  0  0
   27.5298   -2.6438   26.8174 C   0  0  0  0  0  0  0  0  0  0  0  0
   27.8465   -3.9915   27.1748 O   0  0  0  0  0  0  0  0  0  0  0  0
   28.4613   -4.3283   26.4994 H   0  0  0  0  0  0  0  0  0  0  0  0
  5  6  2  0  0  0
  6  7  1  0  0  0
  6  1  1  0  0  0
  7  8  1  0  0  0
  1  2  1  0  0  0
  1  9  1  0  0  0
  2  3  1  0  0  0
  2  4  1  0  0  0
  9 10  1  0  0  0
 10 11  1  0  0  0
M  END
> <minimizedAffinity>
-4.39216

$$$$
ZINC000000895032


 13 12  0  0  0  0  0  0  0  0999 V2000
   26.3968   -0.9645   27.4160 C   0  0  0  0  0  0  0  0  0  0  0  0
   25.1090   -0.7476   26.7130 N   0  0  0  0  0  0  0  0  0  0  0  0
   25.2984   -0.5661   25.7241 H   0  0  0  0  0  0  0  0  0  0  0  0
   24.5368   -1.5887   26.7564 H   0  0  0  0  0  0  0  0  0  0  0  0
   28.4369    0.0519   26.4843 O   0  0  0  0  0  0  0  0  0  0  0  0
   27.3589    0.1693   27.0477 C   0  0  0  0  0  0  0  0  0  0  0  0
   26.9280    1.3796   27.4532 O   0  0  0  0  0  0  0  0  0  0  0  0
   27.6264    1.9932   27.1418 H   0  0  0  0  0  0  0  0  0  0  0  0
   27.0248   -2.2916   27.0119 C   0  0  0  0  0  0  0  0  0  0  0  0
   26.6958   -3.3394   28.0336 C   0  0  0  0  0  0  0  0  0  0  0  0
   27.4857   -4.1084   28.5540 O   0  0  0  0  0  0  0  0  0  0  0  0
   25.3879   -3.3759   28.3435 O   0  0  0  0  0  0  0  0  0  0  0  0
   25.3146   -4.1038   28.9971 H   0  0  0  0  0  0  0  0  0  0  0  0
  5  6  2  0  0  0
  6  7  1  0  0  0
  6  1  1  0  0  0
  7  8  1  0  0  0
  1  2  1  0  0  0
  1  9  1  0  0  0
  2  3  1  0  0  0
  2  4  1  0  0  0
  9 10  1  0  0  0
 10 11  2  0  0  0
 10 12  1  0  0  0
 12 13  1  0  0  0
M  END
> <minimizedAffinity>
-4.98701

$$$$
ZINC000003830713


 28 28  0  0  0  0  0  0  0  0999 V2000
   25.5178   -0.6286   28.4354 O   0  0  0  0  0  0  0  0  0  0  0  0
   26.4455   -1.3940   28.2008 C   0  0  0  0  0  0  0  0  0  0  0  0
   27.8727   -0.9517   27.9503 C   0  0  0  0  0  0  0  0  0  0  0  0
   26.2792   -2.8860   28.1505 C   0  0  0  0  0  0  0  0  0  0  0  0
   28.4932   -2.2498   27.3991 C   0  0  0  0  0  0  0  0  0  0  0  0
   27.7232   -3.3637   28.1339 C   0  0  0  0  0  0  0  0  0  0  0  0
   27.8327   -4.5928   27.4294 O   0  0  0  0  0  0  0  0  0  0  0  0
   27.3455   -5.2704   27.9298 H   0  0  0  0  0  0  0  0  0  0  0  0
   29.9815   -2.3447   27.6435 C   0  0  0  0  0  0  0  0  0  0  0  0
   30.8898   -2.4746   26.6626 C   0  0  0  0  0  0  0  0  0  0  0  0
   32.3712   -2.5624   26.8865 C   0  0  0  0  0  0  0  0  0  0  0  0
   32.9092   -3.3864   25.8600 O   0  0  0  0  0  0  0  0  0  0  0  0
   32.3626   -4.1906   25.8300 H   0  0  0  0  0  0  0  0  0  0  0  0
   33.0238   -1.1776   26.8262 C   0  0  0  0  0  0  0  0  0  0  0  0
   32.2564   -0.2201   25.9079 C   0  0  0  0  0  0  0  0  0  0  0  0
   32.8613    1.1847   25.9418 C   0  0  0  0  0  0  0  0  0  0  0  0
   33.8839    1.3228   27.0694 C   0  0  0  0  0  0  0  0  0  0  0  0
   33.9060    2.7354   27.6314 C   0  0  0  0  0  0  0  0  0  0  0  0
   27.9148    0.2441   26.9976 C   0  0  0  0  0  0  0  0  0  0  0  0
   28.0025    1.5694   27.7013 C   0  0  0  0  0  0  0  0  0  0  0  0
   29.0651    2.0632   28.3567 C   0  0  0  0  0  0  0  0  0  0  0  0
   30.4190    1.4265   28.4925 C   0  0  0  0  0  0  0  0  0  0  0  0
   30.5735    0.7435   29.8507 C   0  0  0  0  0  0  0  0  0  0  0  0
   31.9541    0.1159   29.9982 C   0  0  0  0  0  0  0  0  0  0  0  0
   32.8700    1.0195   30.7707 C   0  0  0  0  0  0  0  0  0  0  0  0
   34.0622    1.1796   30.5747 O   0  0  0  0  0  0  0  0  0  0  0  0
   32.2406    1.6727   31.7657 O   0  0  0  0  0  0  0  0  0  0  0  0
   32.9488    2.2074   32.1823 H   0  0  0  0  0  0  0  0  0  0  0  0
  1  2  2  0  0  0
  2  3  1  0  0  0
  2  4  1  0  0  0
  3  5  1  0  0  0
  3 19  1  0  0  0
  4  6  1  0  0  0
  5  9  1  0  0  0
  5  6  1  0  0  0
 19 20  1  0  0  0
  6  7  1  0  0  0
  9 10  2  0  0  0
 20 21  2  0  0  0
  7  8  1  0  0  0
 10 11  1  0  0  0
 21 22  1  0  0  0
 11 12  1  0  0  0
 11 14  1  0  0  0
 22 23  1  0  0  0
 12 13  1  0  0  0
 14 15  1  0  0  0
 23 24  1  0  0  0
 15 16  1  0  0  0
 24 25  1  0  0  0
 16 17  1  0  0  0
 25 26  2  0  0  0
 25 27  1  0  0  0
 17 18  1  0  0  0
 27 28  1  0  0  0
M  END
> <minimizedAffinity>
-7.42184

$$$$
ZINC000003875560


 30 33  0  0  0  0  0  0  0  0999 V2000
   25.1672   -3.9332   28.7921 O   0  0  0  0  0  0  0  0  0  0  0  0
   26.1387   -3.3832   28.2891 C   0  0  0  0  0  0  0  0  0  0  0  0
   26.1746   -1.9194   28.0884 C   0  0  0  0  0  0  0  0  0  0  0  0
   27.3191   -4.1519   27.8644 C   0  0  0  0  0  0  0  0  0  0  0  0
   27.2281   -1.2853   27.5373 C   0  0  0  0  0  0  0  0  0  0  0  0
   28.3728   -3.5379   27.3133 C   0  0  0  0  0  0  0  0  0  0  0  0
   28.4900   -2.0388   27.0610 C   0  0  0  0  0  0  0  0  0  0  0  0
   27.2874    0.2307   27.3727 C   0  0  0  0  0  0  0  0  0  0  0  0
   29.7142   -1.4568   27.8668 C   0  0  0  0  0  0  0  0  0  0  0  0
   28.6016   -1.8776   25.5279 C   0  0  0  0  0  0  0  0  0  0  0  0
   28.4868    0.7720   28.1627 C   0  0  0  0  0  0  0  0  0  0  0  0
   26.0254    1.0057   27.7764 C   0  0  0  0  0  0  0  0  0  0  0  0
   31.0914   -2.1424   27.6176 C   0  0  0  0  0  0  0  0  0  0  0  0
   29.8155    0.1011   27.7665 C   0  0  0  0  0  0  0  0  0  0  0  0
   31.4574   -2.2023   26.2463 O   0  0  0  0  0  0  0  0  0  0  0  0
   32.2528   -1.5216   28.4239 C   0  0  0  0  0  0  0  0  0  0  0  0
   30.9520    0.5784   28.6871 C   0  0  0  0  0  0  0  0  0  0  0  0
   32.3466    0.0162   28.3177 C   0  0  0  0  0  0  0  0  0  0  0  0
   31.1996    2.0744   28.8307 C   0  0  0  0  0  0  0  0  0  0  0  0
   33.2154    0.7327   29.4042 C   0  0  0  0  0  0  0  0  0  0  0  0
   32.8309    0.4517   26.9089 C   0  0  0  0  0  0  0  0  0  0  0  0
   32.6038    2.1654   29.4585 C   0  0  0  0  0  0  0  0  0  0  0  0
   33.0034    0.1222   30.6821 O   0  0  0  0  0  0  0  0  0  0  0  0
   31.1753   -1.3899   25.7991 H   0  0  0  0  0  0  0  0  0  0  0  0
   33.3786    0.7105   31.3640 H   0  0  0  0  0  0  0  0  0  0  0  0
   34.7345    0.7491   29.1279 C   0  0  0  0  0  0  0  0  0  0  0  0
   35.4299   -0.2715   29.1686 O   0  0  0  0  0  0  0  0  0  0  0  0
   35.3800    2.0895   28.7931 C   0  0  0  0  0  0  0  0  0  0  0  0
   35.9532    2.0698   27.4907 O   0  0  0  0  0  0  0  0  0  0  0  0
   36.2193    1.1431   27.3228 H   0  0  0  0  0  0  0  0  0  0  0  0
  1  2  2  0  0  0
  2  3  1  0  0  0
  2  4  1  0  0  0
  3  5  2  0  0  0
  4  6  2  0  0  0
  5  7  1  0  0  0
  5  8  1  0  0  0
  6  7  1  0  0  0
  7  9  1  0  0  0
  7 10  1  0  0  0
  8 11  1  0  0  0
  8 12  1  0  0  0
  9 13  1  0  0  0
  9 14  1  0  0  0
 11 14  1  0  0  0
 13 15  1  0  0  0
 13 16  1  0  0  0
 14 17  1  0  0  0
 15 24  1  0  0  0
 16 18  1  0  0  0
 17 19  1  0  0  0
 17 18  1  0  0  0
 18 20  1  0  0  0
 18 21  1  0  0  0
 19 22  1  0  0  0
 20 23  1  0  0  0
 20 26  1  0  0  0
 20 22  1  0  0  0
 23 25  1  0  0  0
 26 27  2  0  0  0
 26 28  1  0  0  0
 28 29  1  0  0  0
 29 30  1  0  0  0
M  END
> <minimizedAffinity>
-7.17637

$$$$
ZINC000001530283


 18 17  0  0  0  0  0  0  0  0999 V2000
   28.8341   -2.4183   27.5555 C   0  0  0  0  0  0  0  0  0  0  0  0
   31.5212   -1.4918   27.8094 O   0  0  0  0  0  0  0  0  0  0  0  0
   31.2605   -2.4397   27.0842 C   0  0  0  0  0  0  0  0  0  0  0  0
   30.0178   -2.9405   26.8781 N   0  0  0  0  0  0  0  0  0  0  0  0
   32.2191   -3.0894   26.3887 N   0  0  0  0  0  0  0  0  0  0  0  0
   29.9061   -3.7783   26.3224 H   0  0  0  0  0  0  0  0  0  0  0  0
   32.0306   -3.8668   25.7782 H   0  0  0  0  0  0  0  0  0  0  0  0
   33.1707   -2.7653   26.4935 H   0  0  0  0  0  0  0  0  0  0  0  0
   27.8556   -3.5803   27.7068 C   0  0  0  0  0  0  0  0  0  0  0  0
   27.8136   -4.3683   28.6413 O   0  0  0  0  0  0  0  0  0  0  0  0
   27.0142   -3.7088   26.6622 O   0  0  0  0  0  0  0  0  0  0  0  0
   26.4612   -4.4866   26.8861 H   0  0  0  0  0  0  0  0  0  0  0  0
   28.1662   -1.2920   26.7648 C   0  0  0  0  0  0  0  0  0  0  0  0
   27.4722   -0.2641   27.6586 C   0  0  0  0  0  0  0  0  0  0  0  0
   26.0427   -0.6496   27.9216 C   0  0  0  0  0  0  0  0  0  0  0  0
   25.5972   -1.2047   28.9114 O   0  0  0  0  0  0  0  0  0  0  0  0
   25.2315   -0.3163   26.8995 O   0  0  0  0  0  0  0  0  0  0  0  0
   24.3446   -0.6174   27.1864 H   0  0  0  0  0  0  0  0  0  0  0  0
  2  3  2  0  0  0
  3  4  1  0  0  0
  3  5  1  0  0  0
  4  1  1  0  0  0
  4  6  1  0  0  0
  5  7  1  0  0  0
  5  8  1  0  0  0
  1  9  1  0  0  0
  1 13  1  0  0  0
  9 10  2  0  0  0
  9 11  1  0  0  0
 13 14  1  0  0  0
 11 12  1  0  0  0
 14 15  1  0  0  0
 15 16  2  0  0  0
 15 17  1  0  0  0
 17 18  1  0  0  0
M  END
> <minimizedAffinity>
-5.67490

$$$$
ZINC000003914809


 31 34  0  0  0  0  0  0  0  0999 V2000
   32.5826   -2.8234   23.1046 C   0  0  0  0  0  0  0  0  0  0  0  0
   31.9173   -1.6708   23.9228 C   0  0  0  0  0  0  0  0  0  0  0  0
   33.6061   -3.4175   24.1152 C   0  0  0  0  0  0  0  0  0  0  0  0
   31.7935   -2.3672   25.3066 C   0  0  0  0  0  0  0  0  0  0  0  0
   30.4907   -1.2906   23.4918 C   0  0  0  0  0  0  0  0  0  0  0  0
   32.8221   -0.4147   23.9409 C   0  0  0  0  0  0  0  0  0  0  0  0
   33.1693   -2.9815   25.5180 C   0  0  0  0  0  0  0  0  0  0  0  0
   31.1972   -1.4612   26.4043 C   0  0  0  0  0  0  0  0  0  0  0  0
   29.7804   -0.4107   24.5330 C   0  0  0  0  0  0  0  0  0  0  0  0
   31.1564   -2.1529   27.7828 C   0  0  0  0  0  0  0  0  0  0  0  0
   29.7646   -1.0262   25.9532 C   0  0  0  0  0  0  0  0  0  0  0  0
   32.4763   -2.3806   28.2743 O   0  0  0  0  0  0  0  0  0  0  0  0
   30.4151   -1.3277   28.8347 C   0  0  0  0  0  0  0  0  0  0  0  0
   29.0371   -0.1343   27.0281 C   0  0  0  0  0  0  0  0  0  0  0  0
   29.0132   -0.8879   28.3975 C   0  0  0  0  0  0  0  0  0  0  0  0
   27.5695    0.2036   26.6309 C   0  0  0  0  0  0  0  0  0  0  0  0
   29.7605    1.2262   27.2008 C   0  0  0  0  0  0  0  0  0  0  0  0
   28.0477   -2.0914   28.4020 C   0  0  0  0  0  0  0  0  0  0  0  0
   26.6387   -1.0026   26.6164 C   0  0  0  0  0  0  0  0  0  0  0  0
   26.6369   -1.7035   27.9690 C   0  0  0  0  0  0  0  0  0  0  0  0
   25.8191   -2.8663   27.9033 O   0  0  0  0  0  0  0  0  0  0  0  0
   32.9290   -1.5218   28.3323 H   0  0  0  0  0  0  0  0  0  0  0  0
   26.1982   -3.4657   27.2380 H   0  0  0  0  0  0  0  0  0  0  0  0
   33.2417   -2.5182   21.7253 C   0  0  0  0  0  0  0  0  0  0  0  0
   32.4991   -3.1880   20.5650 C   0  0  0  0  0  0  0  0  0  0  0  0
   34.7305   -2.9595   21.7335 C   0  0  0  0  0  0  0  0  0  0  0  0
   35.4330   -2.8177   20.3802 C   0  0  0  0  0  0  0  0  0  0  0  0
   35.7256   -0.4294   19.9282 O   0  0  0  0  0  0  0  0  0  0  0  0
   36.1712   -1.5094   20.2745 C   0  0  0  0  0  0  0  0  0  0  0  0
   37.4626   -1.6312   20.6416 O   0  0  0  0  0  0  0  0  0  0  0  0
   37.8236   -0.7256   20.5397 H   0  0  0  0  0  0  0  0  0  0  0  0
 28 29  2  0  0  0
 29 30  1  0  0  0
 29 27  1  0  0  0
 30 31  1  0  0  0
 27 26  1  0  0  0
 26 24  1  0  0  0
 24  1  1  0  0  0
 24 25  1  0  0  0
  1  2  1  0  0  0
  1  3  1  0  0  0
  2  4  1  0  0  0
  2  5  1  0  0  0
  2  6  1  0  0  0
  3  7  1  0  0  0
  4  8  1  0  0  0
  4  7  1  0  0  0
  5  9  1  0  0  0
  8 10  1  0  0  0
  8 11  1  0  0  0
  9 11  1  0  0  0
 10 12  1  0  0  0
 10 13  1  0  0  0
 11 14  1  0  0  0
 12 22  1  0  0  0
 13 15  1  0  0  0
 14 16  1  0  0  0
 14 17  1  0  0  0
 14 15  1  0  0  0
 15 18  1  0  0  0
 16 19  1  0  0  0
 18 20  1  0  0  0
 19 20  1  0  0  0
 20 21  1  0  0  0
 21 23  1  0  0  0
M  END
> <minimizedAffinity>
-7.21906

$$$$
ZINC000000056568


 13 13  0  0  0  0  0  0  0  0999 V2000
   29.7878   -2.5617   27.5759 C   0  0  0  0  0  0  0  0  0  0  0  0
   30.1699   -1.3341   28.3650 C   0  0  0  0  0  0  0  0  0  0  0  0
   29.3932   -0.1696   28.2888 C   0  0  0  0  0  0  0  0  0  0  0  0
   31.3023   -1.3413   29.1899 C   0  0  0  0  0  0  0  0  0  0  0  0
   29.7414    0.9634   29.0257 C   0  0  0  0  0  0  0  0  0  0  0  0
   31.6489   -0.2070   29.9261 C   0  0  0  0  0  0  0  0  0  0  0  0
   30.8686    0.9443   29.8444 C   0  0  0  0  0  0  0  0  0  0  0  0
   28.5764   -3.3061   28.1449 C   0  0  0  0  0  0  0  0  0  0  0  0
   27.3213   -3.1472   27.2860 C   0  0  0  0  0  0  0  0  0  0  0  0
   26.0272   -1.3938   28.3983 O   0  0  0  0  0  0  0  0  0  0  0  0
   26.1845   -2.5586   28.0762 C   0  0  0  0  0  0  0  0  0  0  0  0
   25.2810   -3.4942   28.4294 O   0  0  0  0  0  0  0  0  0  0  0  0
   24.6084   -2.9938   28.9375 H   0  0  0  0  0  0  0  0  0  0  0  0
 10 11  2  0  0  0
 11 12  1  0  0  0
 11  9  1  0  0  0
 12 13  1  0  0  0
  9  8  1  0  0  0
  8  1  1  0  0  0
  1  2  1  0  0  0
  2  3  2  0  0  0
  2  4  1  0  0  0
  3  5  1  0  0  0
  4  6  2  0  0  0
  5  7  2  0  0  0
  6  7  1  0  0  0
M  END
> <minimizedAffinity>
-6.32063

$$$$
ZINC000006858022


 33 36  0  0  0  0  0  0  0  0999 V2000
   32.6850   -6.0951   16.3627 C   0  0  0  0  0  0  0  0  0  0  0  0
   33.9558   -5.6332   17.1404 C   0  0  0  0  0  0  0  0  0  0  0  0
   31.5586   -5.2103   16.9510 C   0  0  0  0  0  0  0  0  0  0  0  0
   35.3111   -5.9409   16.4664 C   0  0  0  0  0  0  0  0  0  0  0  0
   33.7156   -4.1039   17.0903 C   0  0  0  0  0  0  0  0  0  0  0  0
   33.9862   -6.1959   18.5832 C   0  0  0  0  0  0  0  0  0  0  0  0
   32.2525   -3.9504   17.5049 C   0  0  0  0  0  0  0  0  0  0  0  0
   35.2790   -5.7055   15.0597 O   0  0  0  0  0  0  0  0  0  0  0  0
   36.4610   -5.1237   17.0932 C   0  0  0  0  0  0  0  0  0  0  0  0
   34.7826   -3.2970   17.8464 C   0  0  0  0  0  0  0  0  0  0  0  0
   36.1854   -3.5961   17.2178 C   0  0  0  0  0  0  0  0  0  0  0  0
   34.4702   -1.7879   17.8561 C   0  0  0  0  0  0  0  0  0  0  0  0
   37.3332   -2.8003   17.9523 C   0  0  0  0  0  0  0  0  0  0  0  0
   34.2008   -1.3359   16.5329 O   0  0  0  0  0  0  0  0  0  0  0  0
   35.5997   -0.9584   18.4726 C   0  0  0  0  0  0  0  0  0  0  0  0
   37.0048   -1.2704   17.9174 C   0  0  0  0  0  0  0  0  0  0  0  0
   38.7310   -3.0259   17.3031 C   0  0  0  0  0  0  0  0  0  0  0  0
   37.4772   -3.2573   19.4291 C   0  0  0  0  0  0  0  0  0  0  0  0
   37.2048   -0.6444   16.5202 C   0  0  0  0  0  0  0  0  0  0  0  0
   38.8782   -2.4166   15.9154 C   0  0  0  0  0  0  0  0  0  0  0  0
   38.5927   -0.9216   15.9503 C   0  0  0  0  0  0  0  0  0  0  0  0
   38.6816   -0.4118   14.6242 O   0  0  0  0  0  0  0  0  0  0  0  0
   35.2190   -4.7483   14.9017 H   0  0  0  0  0  0  0  0  0  0  0  0
   33.9135   -0.4083   16.5904 H   0  0  0  0  0  0  0  0  0  0  0  0
   38.4636    0.5347   14.6566 H   0  0  0  0  0  0  0  0  0  0  0  0
   32.4058   -7.6208   16.2658 C   0  0  0  0  0  0  0  0  0  0  0  0
   32.6608   -8.0837   14.8195 C   0  0  0  0  0  0  0  0  0  0  0  0
   30.9930   -8.0637   16.7059 C   0  0  0  0  0  0  0  0  0  0  0  0
   30.0492   -8.3203   15.5263 C   0  0  0  0  0  0  0  0  0  0  0  0
   27.7010   -7.8093   15.0546 O   0  0  0  0  0  0  0  0  0  0  0  0
   28.6785   -7.7504   15.7800 C   0  0  0  0  0  0  0  0  0  0  0  0
   28.6103   -7.1210   16.9700 O   0  0  0  0  0  0  0  0  0  0  0  0
   27.6840   -6.8044   17.0178 H   0  0  0  0  0  0  0  0  0  0  0  0
 30 31  2  0  0  0
 31 32  1  0  0  0
 31 29  1  0  0  0
 32 33  1  0  0  0
 29 28  1  0  0  0
 28 26  1  0  0  0
 26  1  1  0  0  0
 26 27  1  0  0  0
  1  2  1  0  0  0
  1  3  1  0  0  0
  2  4  1  0  0  0
  2  5  1  0  0  0
  2  6  1  0  0  0
  3  7  1  0  0  0
  4  8  1  0  0  0
  4  9  1  0  0  0
  5 10  1  0  0  0
  5  7  1  0  0  0
  8 23  1  0  0  0
  9 11  1  0  0  0
 10 12  1  0  0  0
 10 11  1  0  0  0
 11 13  1  0  0  0
 12 14  1  0  0  0
 12 15  1  0  0  0
 13 16  1  0  0  0
 13 17  1  0  0  0
 13 18  1  0  0  0
 14 24  1  0  0  0
 15 16  1  0  0  0
 16 19  1  0  0  0
 17 20  1  0  0  0
 19 21  1  0  0  0
 20 21  1  0  0  0
 21 22  1  0  0  0
 22 25  1  0  0  0
M  END
> <minimizedAffinity>
-6.62228

$$$$
ZINC000003830993


 28 29  0  0  0  0  0  0  0  0999 V2000
   36.3984   -1.7215   20.0800 I   0  0  0  0  0  0  0  0  0  0  0  0
   34.4642   -2.4477   20.4404 C   0  0  0  0  0  0  0  0  0  0  0  0
   33.4639   -2.4361   19.4582 C   0  0  0  0  0  0  0  0  0  0  0  0
   34.1905   -2.9473   21.7193 C   0  0  0  0  0  0  0  0  0  0  0  0
   32.1729   -2.8736   19.7879 C   0  0  0  0  0  0  0  0  0  0  0  0
   32.9104   -3.4209   22.0405 C   0  0  0  0  0  0  0  0  0  0  0  0
   30.5814   -2.8028   18.4235 I   0  0  0  0  0  0  0  0  0  0  0  0
   31.9021   -3.3718   21.0684 C   0  0  0  0  0  0  0  0  0  0  0  0
   33.7257   -1.9258   18.2094 O   0  0  0  0  0  0  0  0  0  0  0  0
   34.2139   -2.7806   17.2394 C   0  0  0  0  0  0  0  0  0  0  0  0
   35.2447   -2.2477   16.4593 C   0  0  0  0  0  0  0  0  0  0  0  0
   33.7652   -4.0825   17.0013 C   0  0  0  0  0  0  0  0  0  0  0  0
   35.8272   -3.0094   15.4424 C   0  0  0  0  0  0  0  0  0  0  0  0
   34.3498   -4.8424   15.9833 C   0  0  0  0  0  0  0  0  0  0  0  0
   37.3633   -2.1368   14.3207 I   0  0  0  0  0  0  0  0  0  0  0  0
   35.3813   -4.3113   15.2000 C   0  0  0  0  0  0  0  0  0  0  0  0
   33.6386   -6.7857   15.6698 I   0  0  0  0  0  0  0  0  0  0  0  0
   35.9602   -5.0470   14.2008 O   0  0  0  0  0  0  0  0  0  0  0  0
   35.5288   -5.9195   14.1789 H   0  0  0  0  0  0  0  0  0  0  0  0
   32.6213   -3.9669   23.4215 C   0  0  0  0  0  0  0  0  0  0  0  0
   33.0249   -3.0145   24.5605 C   0  0  0  0  0  0  0  0  0  0  0  0
   33.1106   -3.6889   25.8764 N   0  0  0  0  0  0  0  0  0  0  0  0
   32.1658   -3.9324   26.1829 H   0  0  0  0  0  0  0  0  0  0  0  0
   33.6245   -4.5629   25.7838 H   0  0  0  0  0  0  0  0  0  0  0  0
   31.9827   -1.8975   24.6279 C   0  0  0  0  0  0  0  0  0  0  0  0
   31.7976   -1.0226   23.7951 O   0  0  0  0  0  0  0  0  0  0  0  0
   31.2689   -1.9149   25.7720 O   0  0  0  0  0  0  0  0  0  0  0  0
   30.6393   -1.1698   25.6674 H   0  0  0  0  0  0  0  0  0  0  0  0
  1  2  1  0  0  0
  2  3  2  0  0  0
  2  4  1  0  0  0
  3  9  1  0  0  0
  3  5  1  0  0  0
  4  6  2  0  0  0
  9 10  1  0  0  0
  5  7  1  0  0  0
  5  8  2  0  0  0
  6 20  1  0  0  0
  6  8  1  0  0  0
 10 11  2  0  0  0
 10 12  1  0  0  0
 20 21  1  0  0  0
 11 13  1  0  0  0
 12 14  2  0  0  0
 21 22  1  0  0  0
 21 25  1  0  0  0
 13 15  1  0  0  0
 13 16  2  0  0  0
 14 17  1  0  0  0
 14 16  1  0  0  0
 22 23  1  0  0  0
 22 24  1  0  0  0
 25 26  2  0  0  0
 25 27  1  0  0  0
 16 18  1  0  0  0
 27 28  1  0  0  0
 18 19  1  0  0  0
M  END
> <minimizedAffinity>
-6.18145

$$$$
ZINC000003813088


 28 28  0  0  0  0  0  0  0  0999 V2000
   26.7922   -0.0923   26.3882 O   0  0  0  0  0  0  0  0  0  0  0  0
   27.5555   -0.8747   26.9425 C   0  0  0  0  0  0  0  0  0  0  0  0
   29.0212   -0.5904   27.2102 C   0  0  0  0  0  0  0  0  0  0  0  0
   27.1216   -2.2230   27.4426 C   0  0  0  0  0  0  0  0  0  0  0  0
   29.5282   -1.9906   27.6107 C   0  0  0  0  0  0  0  0  0  0  0  0
   28.3108   -2.6426   28.2931 C   0  0  0  0  0  0  0  0  0  0  0  0
   28.4434   -4.0572   28.3014 O   0  0  0  0  0  0  0  0  0  0  0  0
   27.6643   -4.4291   28.7505 H   0  0  0  0  0  0  0  0  0  0  0  0
   30.7242   -1.9314   28.5353 C   0  0  0  0  0  0  0  0  0  0  0  0
   31.3885   -0.7985   28.8180 C   0  0  0  0  0  0  0  0  0  0  0  0
   32.5090   -0.6947   29.8110 C   0  0  0  0  0  0  0  0  0  0  0  0
   33.6057   -1.4435   29.3061 O   0  0  0  0  0  0  0  0  0  0  0  0
   33.2604   -2.3217   29.0702 H   0  0  0  0  0  0  0  0  0  0  0  0
   32.9217    0.7700   29.9963 C   0  0  0  0  0  0  0  0  0  0  0  0
   34.4308    0.9773   29.8366 C   0  0  0  0  0  0  0  0  0  0  0  0
   34.7436    1.7715   28.5659 C   0  0  0  0  0  0  0  0  0  0  0  0
   33.4656    2.2575   27.8835 C   0  0  0  0  0  0  0  0  0  0  0  0
   33.5077    2.0121   26.3836 C   0  0  0  0  0  0  0  0  0  0  0  0
   29.6935    0.0426   25.9847 C   0  0  0  0  0  0  0  0  0  0  0  0
   30.2937   -0.9763   25.0171 C   0  0  0  0  0  0  0  0  0  0  0  0
   31.7658   -0.6959   24.7105 C   0  0  0  0  0  0  0  0  0  0  0  0
   32.6657   -1.6655   25.4823 C   0  0  0  0  0  0  0  0  0  0  0  0
   32.4796   -3.1093   25.0093 C   0  0  0  0  0  0  0  0  0  0  0  0
   33.4353   -3.4767   23.8738 C   0  0  0  0  0  0  0  0  0  0  0  0
   32.7533   -3.5773   22.5350 C   0  0  0  0  0  0  0  0  0  0  0  0
   32.7748   -2.7668   21.6254 O   0  0  0  0  0  0  0  0  0  0  0  0
   32.0357   -4.7127   22.4221 O   0  0  0  0  0  0  0  0  0  0  0  0
   31.6349   -4.6527   21.5296 H   0  0  0  0  0  0  0  0  0  0  0  0
  1  2  2  0  0  0
  2  3  1  0  0  0
  2  4  1  0  0  0
  3  5  1  0  0  0
  3 19  1  0  0  0
  4  6  1  0  0  0
  5  9  1  0  0  0
  5  6  1  0  0  0
 19 20  1  0  0  0
  6  7  1  0  0  0
  9 10  2  0  0  0
 20 21  1  0  0  0
  7  8  1  0  0  0
 10 11  1  0  0  0
 21 22  1  0  0  0
 11 12  1  0  0  0
 11 14  1  0  0  0
 22 23  1  0  0  0
 12 13  1  0  0  0
 14 15  1  0  0  0
 23 24  1  0  0  0
 15 16  1  0  0  0
 24 25  1  0  0  0
 16 17  1  0  0  0
 25 26  2  0  0  0
 25 27  1  0  0  0
 17 18  1  0  0  0
 27 28  1  0  0  0
M  END
> <minimizedAffinity>
-7.34470

$$$$
ZINC000004658553


  9  8  0  0  0  0  0  0  0  0999 V2000
   26.2916   -0.8981   26.7873 C   0  0  0  0  0  0  0  0  0  0  0  0
   24.8324   -0.7502   26.5779 N   0  0  0  0  0  0  0  0  0  0  0  0
   26.8363    0.3624   27.4440 C   0  0  0  0  0  0  0  0  0  0  0  0
   24.4783   -1.6670   26.2881 H   0  0  0  0  0  0  0  0  0  0  0  0
   24.3884   -0.5848   27.4815 H   0  0  0  0  0  0  0  0  0  0  0  0
   27.7163   -2.5626   27.9229 O   0  0  0  0  0  0  0  0  0  0  0  0
   26.6093   -2.1330   27.6408 C   0  0  0  0  0  0  0  0  0  0  0  0
   25.5036   -2.7909   28.0619 O   0  0  0  0  0  0  0  0  0  0  0  0
   25.8647   -3.5536   28.5614 H   0  0  0  0  0  0  0  0  0  0  0  0
  6  7  2  0  0  0
  7  8  1  0  0  0
  7  1  1  0  0  0
  8  9  1  0  0  0
  1  2  1  0  0  0
  1  3  1  0  0  0
  2  4  1  0  0  0
  2  5  1  0  0  0
M  END
> <minimizedAffinity>
-4.05609

$$$$
ZINC000003831417


 22 22  0  0  0  0  0  0  0  0999 V2000
   32.9422   -2.9093   24.6323 C   0  0  0  0  0  0  0  0  0  0  0  0
   32.3434   -1.7720   25.0478 C   0  0  0  0  0  0  0  0  0  0  0  0
   31.4128   -0.9329   24.2070 C   0  0  0  0  0  0  0  0  0  0  0  0
   33.0103   -2.8839   22.1824 C   0  0  0  0  0  0  0  0  0  0  0  0
   32.8242   -3.5496   23.3357 C   0  0  0  0  0  0  0  0  0  0  0  0
   33.8772   -4.2886   20.4163 C   0  0  0  0  0  0  0  0  0  0  0  0
   32.9143   -3.4375   20.8291 C   0  0  0  0  0  0  0  0  0  0  0  0
   31.7414   -3.0156   19.9804 C   0  0  0  0  0  0  0  0  0  0  0  0
   33.9088   -6.3871   19.3368 O   0  0  0  0  0  0  0  0  0  0  0  0
   34.0090   -4.9901   19.1034 C   0  0  0  0  0  0  0  0  0  0  0  0
   34.5792   -6.6067   20.0065 H   0  0  0  0  0  0  0  0  0  0  0  0
   32.6115   -1.3104   26.4125 C   0  0  0  0  0  0  0  0  0  0  0  0
   32.2048   -0.1534   26.9637 C   0  0  0  0  0  0  0  0  0  0  0  0
   32.4891    0.2220   28.3468 C   0  0  0  0  0  0  0  0  0  0  0  0
   33.6262    0.8739   28.6953 C   0  0  0  0  0  0  0  0  0  0  0  0
   31.4035   -0.1680   29.3737 C   0  0  0  0  0  0  0  0  0  0  0  0
   33.9344    1.2636   30.1258 C   0  0  0  0  0  0  0  0  0  0  0  0
   34.7080    1.3049   27.7316 C   0  0  0  0  0  0  0  0  0  0  0  0
   31.9574   -0.1028   30.8219 C   0  0  0  0  0  0  0  0  0  0  0  0
   30.8909   -1.6129   29.1648 C   0  0  0  0  0  0  0  0  0  0  0  0
   30.2024    0.7951   29.2393 C   0  0  0  0  0  0  0  0  0  0  0  0
   32.7504    1.1679   31.0796 C   0  0  0  0  0  0  0  0  0  0  0  0
  9 10  1  0  0  0
  9 11  1  0  0  0
 10  6  1  0  0  0
  6  7  2  0  0  0
  7  4  1  0  0  0
  7  8  1  0  0  0
  4  5  2  0  0  0
  5  1  1  0  0  0
  1  2  2  0  0  0
  2 12  1  0  0  0
  2  3  1  0  0  0
 12 13  2  0  0  0
 13 14  1  0  0  0
 14 15  2  0  0  0
 14 16  1  0  0  0
 15 17  1  0  0  0
 15 18  1  0  0  0
 16 19  1  0  0  0
 16 20  1  0  0  0
 16 21  1  0  0  0
 17 22  1  0  0  0
 19 22  1  0  0  0
M  END
> <minimizedAffinity>
-8.46006

$$$$
ZINC000003920027


 35 38  0  0  0  0  0  0  0  0999 V2000
   36.4676   -2.5018   16.8514 C   0  0  0  0  0  0  0  0  0  0  0  0
   35.8260   -3.8652   17.3669 C   0  0  0  0  0  0  0  0  0  0  0  0
   37.5412   -3.0491   15.8159 C   0  0  0  0  0  0  0  0  0  0  0  0
   35.6930   -4.6229   16.0238 C   0  0  0  0  0  0  0  0  0  0  0  0
   34.4124   -3.7772   17.9808 C   0  0  0  0  0  0  0  0  0  0  0  0
   36.7861   -4.6047   18.3495 C   0  0  0  0  0  0  0  0  0  0  0  0
   37.0799   -4.4774   15.4102 C   0  0  0  0  0  0  0  0  0  0  0  0
   37.7366   -2.2056   14.5514 C   0  0  0  0  0  0  0  0  0  0  0  0
   35.1003   -6.0396   16.1469 C   0  0  0  0  0  0  0  0  0  0  0  0
   33.7188   -5.1491   18.1409 C   0  0  0  0  0  0  0  0  0  0  0  0
   33.6831   -5.9529   16.8052 C   0  0  0  0  0  0  0  0  0  0  0  0
   35.0224   -6.7105   14.7641 C   0  0  0  0  0  0  0  0  0  0  0  0
   34.3304   -5.8835   19.1943 O   0  0  0  0  0  0  0  0  0  0  0  0
   32.9213   -5.1796   15.9429 F   0  0  0  0  0  0  0  0  0  0  0  0
   32.9719   -7.3672   16.8751 C   0  0  0  0  0  0  0  0  0  0  0  0
   34.3458   -8.0738   14.8164 C   0  0  0  0  0  0  0  0  0  0  0  0
   32.9874   -7.9721   15.4597 C   0  0  0  0  0  0  0  0  0  0  0  0
   31.5385   -7.2290   17.3892 C   0  0  0  0  0  0  0  0  0  0  0  0
   33.6654   -8.3699   17.8266 C   0  0  0  0  0  0  0  0  0  0  0  0
   34.2595   -8.5407   13.5379 F   0  0  0  0  0  0  0  0  0  0  0  0
   31.8790   -8.3451   14.7944 C   0  0  0  0  0  0  0  0  0  0  0  0
   30.4387   -7.6015   16.7211 C   0  0  0  0  0  0  0  0  0  0  0  0
   30.5309   -8.1984   15.3759 C   0  0  0  0  0  0  0  0  0  0  0  0
   29.5294   -8.5568   14.7703 O   0  0  0  0  0  0  0  0  0  0  0  0
   34.3240   -5.3212   19.9911 H   0  0  0  0  0  0  0  0  0  0  0  0
   37.1563   -1.6537   17.9758 C   0  0  0  0  0  0  0  0  0  0  0  0
   36.6120   -1.3025   19.0158 O   0  0  0  0  0  0  0  0  0  0  0  0
   38.8353   -1.1834   17.6798 S   0  0  0  0  0  0  0  0  0  0  0  0
   39.6071   -2.4204   18.7403 C   0  0  0  0  0  0  0  0  0  0  0  0
   39.8332   -1.8697   19.9645 F   0  0  0  0  0  0  0  0  0  0  0  0
   35.5009   -1.7554   16.0630 O   0  0  0  0  0  0  0  0  0  0  0  0
   35.0537   -0.5450   16.4932 C   0  0  0  0  0  0  0  0  0  0  0  0
   34.1243   -0.3804   17.2680 O   0  0  0  0  0  0  0  0  0  0  0  0
   35.8766    0.5484   15.8583 C   0  0  0  0  0  0  0  0  0  0  0  0
   35.0587    1.8029   15.6090 C   0  0  0  0  0  0  0  0  0  0  0  0
 28 26  1  0  0  0
 28 29  1  0  0  0
 26 27  2  0  0  0
 29 30  1  0  0  0
  1 26  1  0  0  0
  1 31  1  0  0  0
  1  2  1  0  0  0
  1  3  1  0  0  0
 31 32  1  0  0  0
  2  4  1  0  0  0
  2  5  1  0  0  0
  2  6  1  0  0  0
  3  7  1  0  0  0
  3  8  1  0  0  0
 32 33  2  0  0  0
 32 34  1  0  0  0
  4  9  1  0  0  0
  4  7  1  0  0  0
  5 10  1  0  0  0
 34 35  1  0  0  0
  9 11  1  0  0  0
  9 12  1  0  0  0
 10 13  1  0  0  0
 10 11  1  0  0  0
 11 14  1  0  0  0
 11 15  1  0  0  0
 12 16  1  0  0  0
 13 25  1  0  0  0
 15 17  1  0  0  0
 15 18  1  0  0  0
 15 19  1  0  0  0
 16 20  1  0  0  0
 16 17  1  0  0  0
 17 21  2  0  0  0
 18 22  2  0  0  0
 21 23  1  0  0  0
 22 23  1  0  0  0
 23 24  2  0  0  0
M  END
> <minimizedAffinity>
-4.25120

$$$$
ZINC000000083315


 19 20  0  0  0  0  0  0  0  0999 V2000
   28.4017   -0.1736   26.8934 C   0  0  0  0  0  0  0  0  0  0  0  0
   29.7710   -0.1362   26.4750 C   0  0  0  0  0  0  0  0  0  0  0  0
   28.2121    0.9022   27.7396 C   0  0  0  0  0  0  0  0  0  0  0  0
   30.3630    0.9729   27.0794 C   0  0  0  0  0  0  0  0  0  0  0  0
   30.5633   -0.9454   25.6347 C   0  0  0  0  0  0  0  0  0  0  0  0
   29.3953    1.5833   27.8416 N   0  0  0  0  0  0  0  0  0  0  0  0
   31.7063    1.3162   26.8848 C   0  0  0  0  0  0  0  0  0  0  0  0
   31.9082   -0.6167   25.4288 C   0  0  0  0  0  0  0  0  0  0  0  0
   32.4687    0.4989   26.0458 C   0  0  0  0  0  0  0  0  0  0  0  0
   29.5452    2.4132   28.3983 H   0  0  0  0  0  0  0  0  0  0  0  0
   27.3715   -1.1891   26.5002 C   0  0  0  0  0  0  0  0  0  0  0  0
   27.2804   -2.3814   27.4669 C   0  0  0  0  0  0  0  0  0  0  0  0
   27.2244   -3.6931   26.7747 N   0  0  0  0  0  0  0  0  0  0  0  0
   26.3552   -3.7383   26.2398 H   0  0  0  0  0  0  0  0  0  0  0  0
   27.9825   -3.7287   26.0924 H   0  0  0  0  0  0  0  0  0  0  0  0
   25.6663   -1.1771   28.8833 O   0  0  0  0  0  0  0  0  0  0  0  0
   26.0202   -2.1967   28.3099 C   0  0  0  0  0  0  0  0  0  0  0  0
   25.2970   -3.3294   28.4302 O   0  0  0  0  0  0  0  0  0  0  0  0
   24.5257   -3.0551   28.9694 H   0  0  0  0  0  0  0  0  0  0  0  0
 16 17  2  0  0  0
 17 18  1  0  0  0
 17 12  1  0  0  0
 18 19  1  0  0  0
 12 13  1  0  0  0
 12 11  1  0  0  0
 13 14  1  0  0  0
 13 15  1  0  0  0
 11  1  1  0  0  0
  1  2  1  0  0  0
  1  3  2  0  0  0
  2  4  2  0  0  0
  2  5  1  0  0  0
  3  6  1  0  0  0
  4  7  1  0  0  0
  4  6  1  0  0  0
  5  8  2  0  0  0
  6 10  1  0  0  0
  7  9  2  0  0  0
  8  9  1  0  0  0
M  END
> <minimizedAffinity>
-7.13962

$$$$
ZINC000000388081


 11 11  0  0  0  0  0  0  0  0999 V2000
   30.4466   -1.3164   26.4846 N   0  0  0  0  0  0  0  0  0  0  0  0
   30.4430   -2.4880   27.0761 C   0  0  0  0  0  0  0  0  0  0  0  0
   29.1344   -0.9238   26.4493 C   0  0  0  0  0  0  0  0  0  0  0  0
   29.1785   -2.8711   27.4209 N   0  0  0  0  0  0  0  0  0  0  0  0
   28.3192   -1.8787   27.0189 C   0  0  0  0  0  0  0  0  0  0  0  0
   28.9305   -3.7305   27.8915 H   0  0  0  0  0  0  0  0  0  0  0  0
   26.8452   -1.9375   27.2196 C   0  0  0  0  0  0  0  0  0  0  0  0
   26.1792   -0.5899   26.9148 C   0  0  0  0  0  0  0  0  0  0  0  0
   24.7800   -0.7633   26.5278 N   0  0  0  0  0  0  0  0  0  0  0  0
   24.3677    0.1517   26.3471 H   0  0  0  0  0  0  0  0  0  0  0  0
   24.7245   -1.2779   25.6500 H   0  0  0  0  0  0  0  0  0  0  0  0
  1  2  2  0  0  0
  1  3  1  0  0  0
  2  4  1  0  0  0
  3  5  2  0  0  0
  4  5  1  0  0  0
  4  6  1  0  0  0
  5  7  1  0  0  0
  7  8  1  0  0  0
  8  9  1  0  0  0
  9 10  1  0  0  0
  9 11  1  0  0  0
M  END
> <minimizedAffinity>
-4.21651

$$$$
ZINC000000266964


 17 17  0  0  0  0  0  0  0  0999 V2000
   26.7553    0.1412   27.6742 C   0  0  0  0  0  0  0  0  0  0  0  0
   28.2325    0.3500   27.4314 C   0  0  0  0  0  0  0  0  0  0  0  0
   28.8776   -0.2980   26.3673 C   0  0  0  0  0  0  0  0  0  0  0  0
   28.9763    1.1987   28.2629 C   0  0  0  0  0  0  0  0  0  0  0  0
   30.2403   -0.0976   26.1351 C   0  0  0  0  0  0  0  0  0  0  0  0
   30.3378    1.3987   28.0306 C   0  0  0  0  0  0  0  0  0  0  0  0
   30.9587    0.7511   26.9701 C   0  0  0  0  0  0  0  0  0  0  0  0
   32.2899    0.9765   26.7798 O   0  0  0  0  0  0  0  0  0  0  0  0
   32.5837    0.4626   26.0099 H   0  0  0  0  0  0  0  0  0  0  0  0
   26.1317   -0.9603   26.7998 C   0  0  0  0  0  0  0  0  0  0  0  0
   24.7195   -0.6904   26.4430 N   0  0  0  0  0  0  0  0  0  0  0  0
   24.1544   -0.7340   27.2931 H   0  0  0  0  0  0  0  0  0  0  0  0
   24.6410    0.2648   26.0929 H   0  0  0  0  0  0  0  0  0  0  0  0
   25.7624   -2.5012   28.6857 O   0  0  0  0  0  0  0  0  0  0  0  0
   26.2189   -2.2755   27.5746 C   0  0  0  0  0  0  0  0  0  0  0  0
   26.9284   -3.2215   26.9249 O   0  0  0  0  0  0  0  0  0  0  0  0
   26.8825   -3.9969   27.5231 H   0  0  0  0  0  0  0  0  0  0  0  0
 14 15  2  0  0  0
 15 16  1  0  0  0
 15 10  1  0  0  0
 16 17  1  0  0  0
 10 11  1  0  0  0
 10  1  1  0  0  0
 11 12  1  0  0  0
 11 13  1  0  0  0
  1  2  1  0  0  0
  2  3  2  0  0  0
  2  4  1  0  0  0
  3  5  1  0  0  0
  4  6  2  0  0  0
  5  7  2  0  0  0
  6  7  1  0  0  0
  7  8  1  0  0  0
  8  9  1  0  0  0
M  END
> <minimizedAffinity>
-6.50593

$$$$
ZINC000036766734


 23 23  0  0  0  0  0  0  0  0999 V2000
   31.1902   -2.6506   26.7667 C   0  0  0  0  0  0  0  0  0  0  0  0
   32.0309   -1.8077   26.1302 C   0  0  0  0  0  0  0  0  0  0  0  0
   33.3476   -2.3252   25.6089 C   0  0  0  0  0  0  0  0  0  0  0  0
   28.7412   -2.5242   26.6751 C   0  0  0  0  0  0  0  0  0  0  0  0
   29.8946   -2.3272   27.3363 C   0  0  0  0  0  0  0  0  0  0  0  0
   26.8051   -1.0862   26.7843 C   0  0  0  0  0  0  0  0  0  0  0  0
   27.3892   -2.2395   27.1710 C   0  0  0  0  0  0  0  0  0  0  0  0
   26.7518   -3.2693   28.0705 C   0  0  0  0  0  0  0  0  0  0  0  0
   25.1181   -0.0856   28.2219 O   0  0  0  0  0  0  0  0  0  0  0  0
   25.4744   -0.5867   27.1754 C   0  0  0  0  0  0  0  0  0  0  0  0
   24.6179   -0.7506   26.1508 O   0  0  0  0  0  0  0  0  0  0  0  0
   23.7741   -0.3934   26.4984 H   0  0  0  0  0  0  0  0  0  0  0  0
   31.6855   -0.4226   25.8316 C   0  0  0  0  0  0  0  0  0  0  0  0
   31.6722    0.6550   26.6358 C   0  0  0  0  0  0  0  0  0  0  0  0
   31.9564    0.7489   28.0652 C   0  0  0  0  0  0  0  0  0  0  0  0
   30.9757    0.7061   29.0027 C   0  0  0  0  0  0  0  0  0  0  0  0
   33.4410    0.9710   28.4349 C   0  0  0  0  0  0  0  0  0  0  0  0
   31.2598    0.7968   30.4877 C   0  0  0  0  0  0  0  0  0  0  0  0
   29.4987    0.5762   28.7071 C   0  0  0  0  0  0  0  0  0  0  0  0
   33.6950    0.6355   29.9285 C   0  0  0  0  0  0  0  0  0  0  0  0
   34.4079    0.0835   27.6172 C   0  0  0  0  0  0  0  0  0  0  0  0
   33.8125    2.4482   28.1687 C   0  0  0  0  0  0  0  0  0  0  0  0
   32.6625    1.2690   30.8458 C   0  0  0  0  0  0  0  0  0  0  0  0
  9 10  2  0  0  0
 10 11  1  0  0  0
 10  6  1  0  0  0
 11 12  1  0  0  0
  6  7  2  0  0  0
  7  4  1  0  0  0
  7  8  1  0  0  0
  4  5  2  0  0  0
  5  1  1  0  0  0
  1  2  2  0  0  0
  2 13  1  0  0  0
  2  3  1  0  0  0
 13 14  2  0  0  0
 14 15  1  0  0  0
 15 16  2  0  0  0
 15 17  1  0  0  0
 16 18  1  0  0  0
 16 19  1  0  0  0
 17 20  1  0  0  0
 17 21  1  0  0  0
 17 22  1  0  0  0
 18 23  1  0  0  0
 20 23  1  0  0  0
M  END
> <minimizedAffinity>
-8.01443

$$$$
ZINC000096014710


 23 23  0  0  0  0  0  0  0  0999 V2000
   30.7763   -2.1406   26.7666 C   0  0  0  0  0  0  0  0  0  0  0  0
   31.7154   -1.4260   26.1171 C   0  0  0  0  0  0  0  0  0  0  0  0
   32.8163   -2.1353   25.3634 C   0  0  0  0  0  0  0  0  0  0  0  0
   28.4304   -1.4639   26.8614 C   0  0  0  0  0  0  0  0  0  0  0  0
   29.6124   -1.6499   27.4762 C   0  0  0  0  0  0  0  0  0  0  0  0
   26.2947   -1.7688   28.0959 C   0  0  0  0  0  0  0  0  0  0  0  0
   27.1939   -0.9804   27.4708 C   0  0  0  0  0  0  0  0  0  0  0  0
   26.9245    0.5038   27.4105 C   0  0  0  0  0  0  0  0  0  0  0  0
   27.2908   -3.9607   28.4512 O   0  0  0  0  0  0  0  0  0  0  0  0
   26.3351   -3.2315   28.2829 C   0  0  0  0  0  0  0  0  0  0  0  0
   25.0821   -3.7206   28.2423 O   0  0  0  0  0  0  0  0  0  0  0  0
   25.2098   -4.6836   28.3727 H   0  0  0  0  0  0  0  0  0  0  0  0
   31.7755    0.0176   25.9791 C   0  0  0  0  0  0  0  0  0  0  0  0
   31.9984    0.9777   26.8905 C   0  0  0  0  0  0  0  0  0  0  0  0
   32.2113    0.9079   28.3329 C   0  0  0  0  0  0  0  0  0  0  0  0
   31.2002    1.2768   29.1625 C   0  0  0  0  0  0  0  0  0  0  0  0
   33.6379    0.6238   28.8611 C   0  0  0  0  0  0  0  0  0  0  0  0
   31.3508    1.3562   30.6672 C   0  0  0  0  0  0  0  0  0  0  0  0
   29.8218    1.7008   28.7039 C   0  0  0  0  0  0  0  0  0  0  0  0
   33.8167    1.2537   30.2727 C   0  0  0  0  0  0  0  0  0  0  0  0
   34.7340    1.2512   27.9681 C   0  0  0  0  0  0  0  0  0  0  0  0
   33.9048   -0.8921   28.9698 C   0  0  0  0  0  0  0  0  0  0  0  0
   32.6849    0.8668   31.2114 C   0  0  0  0  0  0  0  0  0  0  0  0
  9 10  2  0  0  0
 10 11  1  0  0  0
 10  6  1  0  0  0
 11 12  1  0  0  0
  6  7  2  0  0  0
  7  4  1  0  0  0
  7  8  1  0  0  0
  4  5  2  0  0  0
  5  1  1  0  0  0
  1  2  2  0  0  0
  2 13  1  0  0  0
  2  3  1  0  0  0
 13 14  2  0  0  0
 14 15  1  0  0  0
 15 16  2  0  0  0
 15 17  1  0  0  0
 16 18  1  0  0  0
 16 19  1  0  0  0
 17 20  1  0  0  0
 17 21  1  0  0  0
 17 22  1  0  0  0
 18 23  1  0  0  0
 20 23  1  0  0  0
M  END
> <minimizedAffinity>
-9.51501

$$$$
ZINC000003812983


 23 27  0  0  0  0  0  0  0  0999 V2000
   27.7333    0.9644   26.6357 O   0  0  0  0  0  0  0  0  0  0  0  0
   27.5272   -0.3421   27.0030 C   0  0  0  0  0  0  0  0  0  0  0  0
   29.1692    1.1757   26.8795 C   0  0  0  0  0  0  0  0  0  0  0  0
   26.3200   -0.9391   27.2935 C   0  0  0  0  0  0  0  0  0  0  0  0
   28.7090   -1.0362   27.1519 C   0  0  0  0  0  0  0  0  0  0  0  0
   29.8748   -0.1899   26.7333 C   0  0  0  0  0  0  0  0  0  0  0  0
   29.3818    1.8823   28.2535 C   0  0  0  0  0  0  0  0  0  0  0  0
   25.1627   -0.2398   27.1378 O   0  0  0  0  0  0  0  0  0  0  0  0
   26.3253   -2.2485   27.7844 C   0  0  0  0  0  0  0  0  0  0  0  0
   28.7608   -2.3024   27.7113 C   0  0  0  0  0  0  0  0  0  0  0  0
   31.0586   -0.4968   27.6576 C   0  0  0  0  0  0  0  0  0  0  0  0
   30.2428   -0.5214   25.2650 C   0  0  0  0  0  0  0  0  0  0  0  0
   28.1597    2.3662   28.8100 O   0  0  0  0  0  0  0  0  0  0  0  0
   30.0811    1.0845   29.3165 C   0  0  0  0  0  0  0  0  0  0  0  0
   27.5440   -2.9203   28.0135 C   0  0  0  0  0  0  0  0  0  0  0  0
   30.1029   -2.8741   28.0881 C   0  0  0  0  0  0  0  0  0  0  0  0
   30.8484    0.0135   29.0623 C   0  0  0  0  0  0  0  0  0  0  0  0
   31.3069   -2.0425   27.5387 C   0  0  0  0  0  0  0  0  0  0  0  0
   31.4988   -1.4007   25.1481 C   0  0  0  0  0  0  0  0  0  0  0  0
   31.5252   -2.4810   26.1327 N   0  0  0  0  0  0  0  0  0  0  0  0
   32.7267   -3.2997   25.9952 C   0  0  0  0  0  0  0  0  0  0  0  0
   24.4182   -0.8145   27.3763 H   0  0  0  0  0  0  0  0  0  0  0  0
   27.4393    1.9503   28.2949 H   0  0  0  0  0  0  0  0  0  0  0  0
  1  2  1  0  0  0
  1  3  1  0  0  0
  2  4  2  0  0  0
  2  5  1  0  0  0
  3  6  1  0  0  0
  3  7  1  0  0  0
  4  8  1  0  0  0
  4  9  1  0  0  0
  5 10  2  0  0  0
  6 11  1  0  0  0
  6 12  1  0  0  0
  6  5  1  0  0  0
  7 13  1  0  0  0
  7 14  1  0  0  0
  8 22  1  0  0  0
  9 15  2  0  0  0
 10 16  1  0  0  0
 10 15  1  0  0  0
 11 17  1  0  0  0
 11 18  1  0  0  0
 12 19  1  0  0  0
 13 23  1  0  0  0
 14 17  2  0  0  0
 16 18  1  0  0  0
 18 20  1  0  0  0
 19 20  1  0  0  0
 20 21  1  0  0  0
M  END
> <minimizedAffinity>
-9.18554

$$$$
ZINC000000001758


 25 26  0  0  0  0  0  0  0  0999 V2000
   27.0702   -3.6824   27.4085 O   0  0  0  0  0  0  0  0  0  0  0  0
   27.0557   -2.4770   27.5690 C   0  0  0  0  0  0  0  0  0  0  0  0
   25.9709   -1.6649   27.7101 O   0  0  0  0  0  0  0  0  0  0  0  0
   28.2338   -1.6343   27.6436 C   0  0  0  0  0  0  0  0  0  0  0  0
   26.3596   -0.2861   27.8918 C   0  0  0  0  0  0  0  0  0  0  0  0
   29.5603   -2.0173   27.5596 C   0  0  0  0  0  0  0  0  0  0  0  0
   27.8369   -0.3272   27.8321 C   0  0  0  0  0  0  0  0  0  0  0  0
   29.9155   -3.3251   27.3872 O   0  0  0  0  0  0  0  0  0  0  0  0
   30.5486   -1.0289   27.6555 C   0  0  0  0  0  0  0  0  0  0  0  0
   28.7794    0.6883   27.9411 C   0  0  0  0  0  0  0  0  0  0  0  0
   30.1376    0.3234   27.8010 C   0  0  0  0  0  0  0  0  0  0  0  0
   28.3519    2.1095   28.1588 C   0  0  0  0  0  0  0  0  0  0  0  0
   29.1036   -3.8746   27.3432 H   0  0  0  0  0  0  0  0  0  0  0  0
   31.1052    1.2973   27.8815 O   0  0  0  0  0  0  0  0  0  0  0  0
   31.5080    1.4919   29.2398 C   0  0  0  0  0  0  0  0  0  0  0  0
   32.0156   -1.4042   27.5948 C   0  0  0  0  0  0  0  0  0  0  0  0
   32.3404   -2.3044   26.4300 C   0  0  0  0  0  0  0  0  0  0  0  0
   32.2979   -2.0260   25.1106 C   0  0  0  0  0  0  0  0  0  0  0  0
   31.8755   -0.7083   24.5183 C   0  0  0  0  0  0  0  0  0  0  0  0
   32.6717   -3.0956   24.0995 C   0  0  0  0  0  0  0  0  0  0  0  0
   32.7041   -2.5620   22.6688 C   0  0  0  0  0  0  0  0  0  0  0  0
   31.9477   -3.4678   21.7385 C   0  0  0  0  0  0  0  0  0  0  0  0
   31.3793   -3.1644   20.7041 O   0  0  0  0  0  0  0  0  0  0  0  0
   31.9602   -4.7475   22.1615 O   0  0  0  0  0  0  0  0  0  0  0  0
   31.4443   -5.2296   21.4817 H   0  0  0  0  0  0  0  0  0  0  0  0
  1  2  2  0  0  0
  2  3  1  0  0  0
  2  4  1  0  0  0
  3  5  1  0  0  0
  4  6  2  0  0  0
  4  7  1  0  0  0
  5  7  1  0  0  0
  6  8  1  0  0  0
  6  9  1  0  0  0
  7 10  2  0  0  0
  8 13  1  0  0  0
  9 11  2  0  0  0
  9 16  1  0  0  0
 10 12  1  0  0  0
 10 11  1  0  0  0
 11 14  1  0  0  0
 16 17  1  0  0  0
 14 15  1  0  0  0
 17 18  2  0  0  0
 18 20  1  0  0  0
 18 19  1  0  0  0
 20 21  1  0  0  0
 21 22  1  0  0  0
 22 23  2  0  0  0
 22 24  1  0  0  0
 24 25  1  0  0  0
M  END
> <minimizedAffinity>
-7.95703

$$$$
ZINC000003938684


 45 51  0  0  0  0  0  0  0  0999 V2000
   30.3522   -2.1609   17.4018 O   0  0  0  0  0  0  0  0  0  0  0  0
   30.7234   -2.5404   18.4994 C   0  0  0  0  0  0  0  0  0  0  0  0
   29.9167   -3.1803   19.4074 O   0  0  0  0  0  0  0  0  0  0  0  0
   32.0706   -2.3102   19.1170 C   0  0  0  0  0  0  0  0  0  0  0  0
   30.6297   -3.3185   20.6463 C   0  0  0  0  0  0  0  0  0  0  0  0
   33.3298   -2.4284   18.2587 C   0  0  0  0  0  0  0  0  0  0  0  0
   32.0768   -3.3457   20.2252 C   0  0  0  0  0  0  0  0  0  0  0  0
   34.5564   -2.3610   19.1858 C   0  0  0  0  0  0  0  0  0  0  0  0
   33.1392   -3.0062   21.2624 C   0  0  0  0  0  0  0  0  0  0  0  0
   34.4664   -2.6703   20.5831 C   0  0  0  0  0  0  0  0  0  0  0  0
   35.8015   -2.0219   18.6185 C   0  0  0  0  0  0  0  0  0  0  0  0
   35.6310   -2.6314   21.3737 C   0  0  0  0  0  0  0  0  0  0  0  0
   36.9087   -1.9992   19.4365 C   0  0  0  0  0  0  0  0  0  0  0  0
   36.8256   -2.2970   20.7735 C   0  0  0  0  0  0  0  0  0  0  0  0
   38.1764   -1.6986   19.0483 O   0  0  0  0  0  0  0  0  0  0  0  0
   38.0313   -2.2219   21.3982 O   0  0  0  0  0  0  0  0  0  0  0  0
   38.8786   -1.8161   20.3027 C   0  0  0  0  0  0  0  0  0  0  0  0
   33.3618   -3.6350   17.3125 C   0  0  0  0  0  0  0  0  0  0  0  0
   32.6208   -4.8094   17.5496 C   0  0  0  0  0  0  0  0  0  0  0  0
   34.1684   -3.5724   16.1582 C   0  0  0  0  0  0  0  0  0  0  0  0
   32.6886   -5.8893   16.6674 C   0  0  0  0  0  0  0  0  0  0  0  0
   34.2216   -4.6305   15.2462 C   0  0  0  0  0  0  0  0  0  0  0  0
   33.4862   -5.7855   15.5208 C   0  0  0  0  0  0  0  0  0  0  0  0
   33.5347   -6.8485   14.6503 O   0  0  0  0  0  0  0  0  0  0  0  0
   32.9551   -7.5267   15.0435 H   0  0  0  0  0  0  0  0  0  0  0  0
   32.0231   -7.0825   16.8049 O   0  0  0  0  0  0  0  0  0  0  0  0
   30.6278   -7.0719   16.5266 C   0  0  0  0  0  0  0  0  0  0  0  0
   34.9714   -4.6321   14.1000 O   0  0  0  0  0  0  0  0  0  0  0  0
   36.1288   -3.8053   14.0982 C   0  0  0  0  0  0  0  0  0  0  0  0
   32.7304   -1.8495   21.9902 O   0  0  0  0  0  0  0  0  0  0  0  0
   32.0852   -2.1569   23.2304 C   0  0  0  0  0  0  0  0  0  0  0  0
   31.8741   -0.9314   23.9463 O   0  0  0  0  0  0  0  0  0  0  0  0
   32.9935   -3.1335   24.0152 C   0  0  0  0  0  0  0  0  0  0  0  0
   31.3084   -1.1562   25.2338 C   0  0  0  0  0  0  0  0  0  0  0  0
   33.0274   -4.4242   23.3867 O   0  0  0  0  0  0  0  0  0  0  0  0
   32.4982   -3.3137   25.4533 C   0  0  0  0  0  0  0  0  0  0  0  0
   32.2671   -1.9572   26.1107 C   0  0  0  0  0  0  0  0  0  0  0  0
   31.0206    0.1583   25.9510 C   0  0  0  0  0  0  0  0  0  0  0  0
   33.4720   -4.0665   26.1936 O   0  0  0  0  0  0  0  0  0  0  0  0
   31.7177   -2.1393   27.4178 O   0  0  0  0  0  0  0  0  0  0  0  0
   30.5289   -0.1030   27.2640 O   0  0  0  0  0  0  0  0  0  0  0  0
   31.4586   -0.8709   28.0273 C   0  0  0  0  0  0  0  0  0  0  0  0
   30.8483   -1.1255   29.3944 C   0  0  0  0  0  0  0  0  0  0  0  0
   33.5756   -4.9817   23.9735 H   0  0  0  0  0  0  0  0  0  0  0  0
   33.1604   -4.0628   27.1204 H   0  0  0  0  0  0  0  0  0  0  0  0
  1  2  2  0  0  0
  2  3  1  0  0  0
  2  4  1  0  0  0
  3  5  1  0  0  0
  4  6  1  0  0  0
  4  7  1  0  0  0
  5  7  1  0  0  0
  6  8  1  0  0  0
  6 18  1  0  0  0
  7  9  1  0  0  0
  8 10  2  0  0  0
  8 11  1  0  0  0
 18 19  2  0  0  0
 18 20  1  0  0  0
  9 30  1  0  0  0
  9 10  1  0  0  0
 10 12  1  0  0  0
 11 13  2  0  0  0
 19 21  1  0  0  0
 20 22  2  0  0  0
 30 31  1  0  0  0
 12 14  2  0  0  0
 13 15  1  0  0  0
 13 14  1  0  0  0
 21 26  1  0  0  0
 21 23  2  0  0  0
 22 28  1  0  0  0
 22 23  1  0  0  0
 31 32  1  0  0  0
 31 33  1  0  0  0
 14 16  1  0  0  0
 15 17  1  0  0  0
 26 27  1  0  0  0
 23 24  1  0  0  0
 28 29  1  0  0  0
 32 34  1  0  0  0
 33 35  1  0  0  0
 33 36  1  0  0  0
 16 17  1  0  0  0
 24 25  1  0  0  0
 34 37  1  0  0  0
 34 38  1  0  0  0
 35 44  1  0  0  0
 36 39  1  0  0  0
 36 37  1  0  0  0
 37 40  1  0  0  0
 38 41  1  0  0  0
 39 45  1  0  0  0
 40 42  1  0  0  0
 41 42  1  0  0  0
 42 43  1  0  0  0
M  END
> <minimizedAffinity>
-8.23898

$$$$
ZINC000003806721


 23 27  0  0  0  0  0  0  0  0999 V2000
   32.2607   -2.6989   27.4719 O   0  0  0  0  0  0  0  0  0  0  0  0
   31.7844   -2.1105   26.3231 C   0  0  0  0  0  0  0  0  0  0  0  0
   31.5020   -2.0424   28.5478 C   0  0  0  0  0  0  0  0  0  0  0  0
   32.3967   -2.1204   25.0821 C   0  0  0  0  0  0  0  0  0  0  0  0
   30.6223   -1.4017   26.5498 C   0  0  0  0  0  0  0  0  0  0  0  0
   30.1470   -1.5974   27.9591 C   0  0  0  0  0  0  0  0  0  0  0  0
   32.3506   -0.8991   29.1843 C   0  0  0  0  0  0  0  0  0  0  0  0
   31.8080   -1.3411   24.0762 C   0  0  0  0  0  0  0  0  0  0  0  0
   30.0693   -0.5635   25.5992 C   0  0  0  0  0  0  0  0  0  0  0  0
   29.5382   -0.2812   28.4571 C   0  0  0  0  0  0  0  0  0  0  0  0
   29.0825   -2.7226   27.9855 C   0  0  0  0  0  0  0  0  0  0  0  0
   33.7112   -0.9295   28.7551 O   0  0  0  0  0  0  0  0  0  0  0  0
   31.8431    0.5004   28.9894 C   0  0  0  0  0  0  0  0  0  0  0  0
   30.6664   -0.5512   24.3382 C   0  0  0  0  0  0  0  0  0  0  0  0
   28.9653    0.3750   26.0105 C   0  0  0  0  0  0  0  0  0  0  0  0
   30.5740    0.7957   28.6698 C   0  0  0  0  0  0  0  0  0  0  0  0
   28.4010    0.0788   27.4373 C   0  0  0  0  0  0  0  0  0  0  0  0
   27.6486   -2.1851   28.1241 C   0  0  0  0  0  0  0  0  0  0  0  0
   27.4015   -1.0141   27.2852 N   0  0  0  0  0  0  0  0  0  0  0  0
   26.0328   -0.5284   27.4359 C   0  0  0  0  0  0  0  0  0  0  0  0
   33.7438   -1.5331   27.9865 H   0  0  0  0  0  0  0  0  0  0  0  0
   33.5360   -2.8625   24.9675 O   0  0  0  0  0  0  0  0  0  0  0  0
   33.7936   -3.4516   23.7005 C   0  0  0  0  0  0  0  0  0  0  0  0
  1  2  1  0  0  0
  1  3  1  0  0  0
  2  4  2  0  0  0
  2  5  1  0  0  0
  3  6  1  0  0  0
  3  7  1  0  0  0
  4 22  1  0  0  0
  4  8  1  0  0  0
  5  9  2  0  0  0
  6 10  1  0  0  0
  6 11  1  0  0  0
  6  5  1  0  0  0
  7 12  1  0  0  0
  7 13  1  0  0  0
 22 23  1  0  0  0
  8 14  2  0  0  0
  9 15  1  0  0  0
  9 14  1  0  0  0
 10 16  1  0  0  0
 10 17  1  0  0  0
 11 18  1  0  0  0
 12 21  1  0  0  0
 13 16  2  0  0  0
 15 17  1  0  0  0
 17 19  1  0  0  0
 18 19  1  0  0  0
 19 20  1  0  0  0
M  END
> <minimizedAffinity>
-8.78286

$$$$
ZINC000000056556


 21 22  0  0  0  0  0  0  0  0999 V2000
   30.8695   -0.4451   28.2667 O   0  0  0  0  0  0  0  0  0  0  0  0
   29.5471   -0.1708   28.0098 C   0  0  0  0  0  0  0  0  0  0  0  0
   28.6716   -1.2878   27.9932 C   0  0  0  0  0  0  0  0  0  0  0  0
   29.0462    1.1133   27.7690 C   0  0  0  0  0  0  0  0  0  0  0  0
   27.2924   -1.0811   27.7442 C   0  0  0  0  0  0  0  0  0  0  0  0
   29.1126   -2.6113   28.2152 C   0  0  0  0  0  0  0  0  0  0  0  0
   27.6876    1.3052   27.5229 C   0  0  0  0  0  0  0  0  0  0  0  0
   26.8177    0.2174   27.5129 C   0  0  0  0  0  0  0  0  0  0  0  0
   26.4122   -2.1767   27.7287 C   0  0  0  0  0  0  0  0  0  0  0  0
   28.2267   -3.6905   28.1959 C   0  0  0  0  0  0  0  0  0  0  0  0
   26.8761   -3.4725   27.9536 C   0  0  0  0  0  0  0  0  0  0  0  0
   31.3273   -0.3363   29.6182 C   0  0  0  0  0  0  0  0  0  0  0  0
   32.8491   -0.5282   29.6366 C   0  0  0  0  0  0  0  0  0  0  0  0
   33.2652   -1.2567   28.4703 O   0  0  0  0  0  0  0  0  0  0  0  0
   34.2147   -1.0393   28.3696 H   0  0  0  0  0  0  0  0  0  0  0  0
   33.5818    0.8272   29.6443 C   0  0  0  0  0  0  0  0  0  0  0  0
   32.8426    1.7817   28.7997 N   0  0  0  0  0  0  0  0  0  0  0  0
   32.0126    1.3269   28.4147 H   0  0  0  0  0  0  0  0  0  0  0  0
   33.6558    2.3294   27.7062 C   0  0  0  0  0  0  0  0  0  0  0  0
   33.1790    1.6839   26.4037 C   0  0  0  0  0  0  0  0  0  0  0  0
   35.1502    2.0670   27.8984 C   0  0  0  0  0  0  0  0  0  0  0  0
  1  2  1  0  0  0
  1 12  1  0  0  0
  2  3  1  0  0  0
  2  4  2  0  0  0
 12 13  1  0  0  0
  3  5  1  0  0  0
  3  6  2  0  0  0
  4  7  1  0  0  0
 13 14  1  0  0  0
 13 16  1  0  0  0
  5  8  1  0  0  0
  5  9  2  0  0  0
  6 10  1  0  0  0
  7  8  2  0  0  0
 14 15  1  0  0  0
 16 17  1  0  0  0
  9 11  1  0  0  0
 10 11  2  0  0  0
 17 19  1  0  0  0
 17 18  1  0  0  0
 19 20  1  0  0  0
 19 21  1  0  0  0
M  END
> <minimizedAffinity>
-7.99053

$$$$
ZINC000003812841


 30 32  0  0  0  0  0  0  0  0999 V2000
   29.4151    0.0735   26.7040 C   0  0  0  0  0  0  0  0  0  0  0  0
   29.7618   -0.2267   28.1995 C   0  0  0  0  0  0  0  0  0  0  0  0
   27.8962    0.3945   26.5488 C   0  0  0  0  0  0  0  0  0  0  0  0
   29.2938    0.9082   29.1100 C   0  0  0  0  0  0  0  0  0  0  0  0
   31.2600   -0.5641   28.4323 C   0  0  0  0  0  0  0  0  0  0  0  0
   27.4355    1.3825   27.5885 C   0  0  0  0  0  0  0  0  0  0  0  0
   26.9751   -0.8299   26.5994 C   0  0  0  0  0  0  0  0  0  0  0  0
   28.0852    1.6148   28.7356 C   0  0  0  0  0  0  0  0  0  0  0  0
   29.9551    1.2621   30.2264 C   0  0  0  0  0  0  0  0  0  0  0  0
   31.5749   -0.6624   29.9302 C   0  0  0  0  0  0  0  0  0  0  0  0
   31.2176    0.6076   30.7176 C   0  0  0  0  0  0  0  0  0  0  0  0
   32.3595    1.6270   30.7279 C   0  0  0  0  0  0  0  0  0  0  0  0
   29.8992   -1.0422   25.7464 C   0  0  0  0  0  0  0  0  0  0  0  0
   30.8000   -0.5308   24.6115 C   0  0  0  0  0  0  0  0  0  0  0  0
   33.2373   -4.0951   26.3933 O   0  0  0  0  0  0  0  0  0  0  0  0
   33.0420   -3.3425   25.4475 C   0  0  0  0  0  0  0  0  0  0  0  0
   32.0457   -2.4190   25.4581 O   0  0  0  0  0  0  0  0  0  0  0  0
   33.8915   -3.3485   24.2088 C   0  0  0  0  0  0  0  0  0  0  0  0
   32.0313   -1.4262   24.4169 C   0  0  0  0  0  0  0  0  0  0  0  0
   32.9890   -3.2756   22.9899 C   0  0  0  0  0  0  0  0  0  0  0  0
   32.0154   -2.0990   23.0458 C   0  0  0  0  0  0  0  0  0  0  0  0
   33.7703   -3.1994   21.7998 O   0  0  0  0  0  0  0  0  0  0  0  0
   34.3357   -2.4095   21.8417 H   0  0  0  0  0  0  0  0  0  0  0  0
   32.0892    0.4390   27.8097 O   0  0  0  0  0  0  0  0  0  0  0  0
   33.3938    0.1145   27.6027 C   0  0  0  0  0  0  0  0  0  0  0  0
   33.8981   -0.9743   27.8404 O   0  0  0  0  0  0  0  0  0  0  0  0
   34.1435    1.3055   27.0342 C   0  0  0  0  0  0  0  0  0  0  0  0
   33.1664    2.1509   26.2213 C   0  0  0  0  0  0  0  0  0  0  0  0
   34.7887    2.1343   28.1523 C   0  0  0  0  0  0  0  0  0  0  0  0
   35.0896    1.3092   29.3963 C   0  0  0  0  0  0  0  0  0  0  0  0
 15 16  2  0  0  0
 16 17  1  0  0  0
 16 18  1  0  0  0
 17 19  1  0  0  0
 18 20  1  0  0  0
 19 21  1  0  0  0
 19 14  1  0  0  0
 20 22  1  0  0  0
 20 21  1  0  0  0
 14 13  1  0  0  0
 22 23  1  0  0  0
 13  1  1  0  0  0
  1  2  1  0  0  0
  1  3  1  0  0  0
  2  4  1  0  0  0
  2  5  1  0  0  0
  3  6  1  0  0  0
  3  7  1  0  0  0
  4  8  1  0  0  0
  4  9  2  0  0  0
  5 24  1  0  0  0
  5 10  1  0  0  0
  6  8  2  0  0  0
  9 11  1  0  0  0
 24 25  1  0  0  0
 10 11  1  0  0  0
 11 12  1  0  0  0
 25 26  2  0  0  0
 25 27  1  0  0  0
 27 29  1  0  0  0
 27 28  1  0  0  0
 29 30  1  0  0  0
M  END
> <minimizedAffinity>
-8.20206

$$$$
ZINC000001530625


 24 26  0  0  0  0  0  0  0  0999 V2000
   35.7265   -2.0551   19.4281 O   0  0  0  0  0  0  0  0  0  0  0  0
   34.4341   -2.5035   19.4940 C   0  0  0  0  0  0  0  0  0  0  0  0
   36.1697   -1.5116   18.1681 C   0  0  0  0  0  0  0  0  0  0  0  0
   33.6094   -2.7251   18.3813 C   0  0  0  0  0  0  0  0  0  0  0  0
   33.9681   -2.7103   20.7978 C   0  0  0  0  0  0  0  0  0  0  0  0
   35.7108   -2.4398   17.0285 C   0  0  0  0  0  0  0  0  0  0  0  0
   37.7053   -1.5002   18.2791 C   0  0  0  0  0  0  0  0  0  0  0  0
   35.6947   -0.0548   18.0475 C   0  0  0  0  0  0  0  0  0  0  0  0
   32.2614   -3.0231   18.6403 C   0  0  0  0  0  0  0  0  0  0  0  0
   34.1649   -2.5224   16.9828 C   0  0  0  0  0  0  0  0  0  0  0  0
   32.6421   -3.0777   21.0346 C   0  0  0  0  0  0  0  0  0  0  0  0
   36.2304   -2.0910   15.6257 C   0  0  0  0  0  0  0  0  0  0  0  0
   31.3682   -3.0842   17.6048 O   0  0  0  0  0  0  0  0  0  0  0  0
   31.7851   -3.2207   19.9416 C   0  0  0  0  0  0  0  0  0  0  0  0
   33.7805   -3.5525   15.9340 C   0  0  0  0  0  0  0  0  0  0  0  0
   35.8907   -3.2108   14.6333 C   0  0  0  0  0  0  0  0  0  0  0  0
   34.5505   -3.8614   14.8723 C   0  0  0  0  0  0  0  0  0  0  0  0
   34.1307   -4.8847   13.8566 C   0  0  0  0  0  0  0  0  0  0  0  0
   30.4819   -3.2608   17.9595 H   0  0  0  0  0  0  0  0  0  0  0  0
   32.1504   -3.3136   22.4393 C   0  0  0  0  0  0  0  0  0  0  0  0
   33.3086   -3.3874   23.4366 C   0  0  0  0  0  0  0  0  0  0  0  0
   32.9975   -2.5948   24.7072 C   0  0  0  0  0  0  0  0  0  0  0  0
   31.9178   -1.5429   24.4561 C   0  0  0  0  0  0  0  0  0  0  0  0
   31.9862   -0.4193   25.4780 C   0  0  0  0  0  0  0  0  0  0  0  0
  1  2  1  0  0  0
  1  3  1  0  0  0
  2  4  2  0  0  0
  2  5  1  0  0  0
  3  6  1  0  0  0
  3  7  1  0  0  0
  3  8  1  0  0  0
  4  9  1  0  0  0
  4 10  1  0  0  0
  5 11  2  0  0  0
  6 12  1  0  0  0
  6 10  1  0  0  0
  9 13  1  0  0  0
  9 14  2  0  0  0
 10 15  1  0  0  0
 11 20  1  0  0  0
 11 14  1  0  0  0
 12 16  1  0  0  0
 13 19  1  0  0  0
 15 17  2  0  0  0
 20 21  1  0  0  0
 16 17  1  0  0  0
 17 18  1  0  0  0
 21 22  1  0  0  0
 22 23  1  0  0  0
 23 24  1  0  0  0
M  END
> <minimizedAffinity>
-7.60236

$$$$
ZINC000000967566


 11 12  0  0  0  0  0  0  0  0999 V2000
   29.0813   -0.1404   28.6009 O   0  0  0  0  0  0  0  0  0  0  0  0
   30.2058   -1.0016   28.3299 C   0  0  0  0  0  0  0  0  0  0  0  0
   28.0353   -0.2293   27.6098 C   0  0  0  0  0  0  0  0  0  0  0  0
   29.7046   -2.4582   28.2917 C   0  0  0  0  0  0  0  0  0  0  0  0
   30.8037   -0.6051   26.9667 C   0  0  0  0  0  0  0  0  0  0  0  0
   31.2189   -0.8004   29.4519 C   0  0  0  0  0  0  0  0  0  0  0  0
   28.4311   -1.2535   26.5060 C   0  0  0  0  0  0  0  0  0  0  0  0
   27.8275    1.1830   27.0421 C   0  0  0  0  0  0  0  0  0  0  0  0
   26.7482   -0.6365   28.3432 C   0  0  0  0  0  0  0  0  0  0  0  0
   28.6936   -2.6275   27.1519 C   0  0  0  0  0  0  0  0  0  0  0  0
   29.7631   -0.8240   25.8623 C   0  0  0  0  0  0  0  0  0  0  0  0
  1  2  1  0  0  0
  1  3  1  0  0  0
  2  4  1  0  0  0
  2  5  1  0  0  0
  2  6  1  0  0  0
  3  7  1  0  0  0
  3  8  1  0  0  0
  3  9  1  0  0  0
  4 10  1  0  0  0
  5 11  1  0  0  0
  7 10  1  0  0  0
  7 11  1  0  0  0
M  END
> <minimizedAffinity>
-5.92742

$$$$
ZINC000000967521


 11 12  0  0  0  0  0  0  0  0999 V2000
   32.6626   -0.4020   25.9247 O   0  0  0  0  0  0  0  0  0  0  0  0
   32.8756    0.3122   26.8922 C   0  0  0  0  0  0  0  0  0  0  0  0
   32.9295   -0.1414   28.3547 C   0  0  0  0  0  0  0  0  0  0  0  0
   33.1584    1.7998   26.8265 C   0  0  0  0  0  0  0  0  0  0  0  0
   32.3820    1.1343   29.0516 C   0  0  0  0  0  0  0  0  0  0  0  0
   34.4416   -0.1199   28.6762 C   0  0  0  0  0  0  0  0  0  0  0  0
   32.2345   -1.4521   28.6340 C   0  0  0  0  0  0  0  0  0  0  0  0
   33.4124    2.0500   28.3338 C   0  0  0  0  0  0  0  0  0  0  0  0
   32.5088    1.1413   30.5874 C   0  0  0  0  0  0  0  0  0  0  0  0
   30.9095    1.4611   28.7311 C   0  0  0  0  0  0  0  0  0  0  0  0
   34.7699    1.3900   28.6857 C   0  0  0  0  0  0  0  0  0  0  0  0
  1  2  2  0  0  0
  2  3  1  0  0  0
  2  4  1  0  0  0
  3  5  1  0  0  0
  3  6  1  0  0  0
  3  7  1  0  0  0
  4  8  1  0  0  0
  5  9  1  0  0  0
  5 10  1  0  0  0
  5  8  1  0  0  0
  6 11  1  0  0  0
  8 11  1  0  0  0
M  END
> <minimizedAffinity>
-5.73736

$$$$
ZINC000085555528


 62 70  0  0  0  0  0  0  0  0999 V2000
   31.9430   -2.4937   22.0356 C   0  0  0  0  0  0  0  0  0  0  0  0
   30.5634   -2.2627   21.7905 C   0  0  0  0  0  0  0  0  0  0  0  0
   32.5046   -1.8874   23.1766 C   0  0  0  0  0  0  0  0  0  0  0  0
   29.8128   -1.3934   22.6005 C   0  0  0  0  0  0  0  0  0  0  0  0
   31.7268   -1.0794   24.0021 C   0  0  0  0  0  0  0  0  0  0  0  0
   30.3986   -0.8134   23.7093 C   0  0  0  0  0  0  0  0  0  0  0  0
   32.1384   -0.3305   25.2446 C   0  0  0  0  0  0  0  0  0  0  0  0
   29.8170    0.0432   24.6271 N   0  0  0  0  0  0  0  0  0  0  0  0
   30.7702    0.2786   25.7347 C   0  0  0  0  0  0  0  0  0  0  0  0
   32.9219   -1.1566   26.2846 C   0  0  0  0  0  0  0  0  0  0  0  0
   33.1379    0.7873   24.9021 C   0  0  0  0  0  0  0  0  0  0  0  0
   28.7946    0.9861   24.2289 C   0  0  0  0  0  0  0  0  0  0  0  0
   30.2746   -0.3144   27.0822 C   0  0  0  0  0  0  0  0  0  0  0  0
   33.8507   -0.1917   26.9056 N   0  0  0  0  0  0  0  0  0  0  0  0
   32.0942   -2.1809   27.1617 C   0  0  0  0  0  0  0  0  0  0  0  0
   33.7581    1.1058   26.2503 C   0  0  0  0  0  0  0  0  0  0  0  0
   30.9594    0.3678   28.1653 O   0  0  0  0  0  0  0  0  0  0  0  0
   30.5532   -1.8349   27.1713 C   0  0  0  0  0  0  0  0  0  0  0  0
   33.9912   -0.1338   28.3439 C   0  0  0  0  0  0  0  0  0  0  0  0
   32.6752   -2.2480   28.5732 C   0  0  0  0  0  0  0  0  0  0  0  0
   33.5255   -1.3449   29.0755 C   0  0  0  0  0  0  0  0  0  0  0  0
   30.5009    1.2202   28.2966 H   0  0  0  0  0  0  0  0  0  0  0  0
   32.7903   -3.4425   21.1225 C   0  0  0  0  0  0  0  0  0  0  0  0
   34.1600   -2.7395   20.8808 C   0  0  0  0  0  0  0  0  0  0  0  0
   32.0338   -3.8204   19.7931 C   0  0  0  0  0  0  0  0  0  0  0  0
   35.2357   -3.0494   21.6958 N   0  0  0  0  0  0  0  0  0  0  0  0
   34.6268   -1.7601   19.9914 C   0  0  0  0  0  0  0  0  0  0  0  0
   32.7050   -4.7985   18.7790 C   0  0  0  0  0  0  0  0  0  0  0  0
   36.3410   -2.2997   21.4018 C   0  0  0  0  0  0  0  0  0  0  0  0
   35.9966   -1.4783   20.3380 C   0  0  0  0  0  0  0  0  0  0  0  0
   33.9252   -1.0954   18.8363 C   0  0  0  0  0  0  0  0  0  0  0  0
   33.9064   -4.1777   18.0655 C   0  0  0  0  0  0  0  0  0  0  0  0
   31.7142   -5.2524   17.6673 C   0  0  0  0  0  0  0  0  0  0  0  0
   37.6112   -2.2986   21.9901 C   0  0  0  0  0  0  0  0  0  0  0  0
   36.9793   -0.6024   19.8273 C   0  0  0  0  0  0  0  0  0  0  0  0
   34.1523   -1.7916   17.4672 C   0  0  0  0  0  0  0  0  0  0  0  0
   33.3676   -3.0047   17.3983 N   0  0  0  0  0  0  0  0  0  0  0  0
   31.3786   -4.1901   16.5719 C   0  0  0  0  0  0  0  0  0  0  0  0
   38.5645   -1.4192   21.4701 C   0  0  0  0  0  0  0  0  0  0  0  0
   38.2554   -0.5810   20.4029 C   0  0  0  0  0  0  0  0  0  0  0  0
   32.6473   -3.3555   16.1883 C   0  0  0  0  0  0  0  0  0  0  0  0
   30.9672   -4.9091   15.3935 O   0  0  0  0  0  0  0  0  0  0  0  0
   35.2110   -3.7660   22.4116 H   0  0  0  0  0  0  0  0  0  0  0  0
   30.2694   -5.5331   15.6540 H   0  0  0  0  0  0  0  0  0  0  0  0
   32.1789   -5.3498   22.6135 O   0  0  0  0  0  0  0  0  0  0  0  0
   32.9721   -4.8312   21.8317 C   0  0  0  0  0  0  0  0  0  0  0  0
   34.1741   -5.4005   21.4966 O   0  0  0  0  0  0  0  0  0  0  0  0
   34.0598   -6.6031   20.7375 C   0  0  0  0  0  0  0  0  0  0  0  0
   30.2216   -3.2221   16.9346 C   0  0  0  0  0  0  0  0  0  0  0  0
   30.6351   -1.8062   17.3172 C   0  0  0  0  0  0  0  0  0  0  0  0
   29.9896   -2.8789   20.7033 O   0  0  0  0  0  0  0  0  0  0  0  0
   28.6593   -2.4407   20.4219 C   0  0  0  0  0  0  0  0  0  0  0  0
   28.7755    0.0038   27.2713 C   0  0  0  0  0  0  0  0  0  0  0  0
   27.8242   -0.5409   26.7323 O   0  0  0  0  0  0  0  0  0  0  0  0
   28.6442    1.0404   28.1709 O   0  0  0  0  0  0  0  0  0  0  0  0
   27.4797    1.8418   27.9585 C   0  0  0  0  0  0  0  0  0  0  0  0
   32.3328   -3.6003   26.5182 C   0  0  0  0  0  0  0  0  0  0  0  0
   33.4161   -3.7569   25.4585 C   0  0  0  0  0  0  0  0  0  0  0  0
   29.9563   -2.3504   28.4023 O   0  0  0  0  0  0  0  0  0  0  0  0
   28.9216   -3.2288   28.3105 C   0  0  0  0  0  0  0  0  0  0  0  0
   28.3873   -3.8153   29.2386 O   0  0  0  0  0  0  0  0  0  0  0  0
   28.5033   -3.3633   26.8785 C   0  0  0  0  0  0  0  0  0  0  0  0
 45 46  2  0  0  0
 46 47  1  0  0  0
 47 48  1  0  0  0
 23 46  1  0  0  0
 23  1  1  0  0  0
 23 24  1  0  0  0
 23 25  1  0  0  0
  1  2  2  0  0  0
  1  3  1  0  0  0
 24 26  1  0  0  0
 24 27  2  0  0  0
 25 28  1  0  0  0
  2 51  1  0  0  0
  2  4  1  0  0  0
  3  5  2  0  0  0
 26 29  1  0  0  0
 26 43  1  0  0  0
 27 30  1  0  0  0
 27 31  1  0  0  0
 28 32  1  0  0  0
 28 33  1  0  0  0
 51 52  1  0  0  0
  4  6  2  0  0  0
  5  6  1  0  0  0
 29 34  1  0  0  0
 29 30  2  0  0  0
 30 35  1  0  0  0
 31 36  1  0  0  0
 33 38  1  0  0  0
  6  8  1  0  0  0
  7  5  1  0  0  0
  7  9  1  0  0  0
  7 10  1  0  0  0
  7 11  1  0  0  0
 34 39  2  0  0  0
 35 40  2  0  0  0
 36 37  1  0  0  0
 37 32  1  0  0  0
 37 41  1  0  0  0
 38 42  1  0  0  0
 38 49  1  0  0  0
 38 41  1  0  0  0
  8 12  1  0  0  0
  8  9  1  0  0  0
  9 13  1  0  0  0
 10 14  1  0  0  0
 10 15  1  0  0  0
 11 16  1  0  0  0
 39 40  1  0  0  0
 42 44  1  0  0  0
 49 50  1  0  0  0
 13 17  1  0  0  0
 13 53  1  0  0  0
 13 18  1  0  0  0
 14 19  1  0  0  0
 14 16  1  0  0  0
 15 20  1  0  0  0
 15 57  1  0  0  0
 15 18  1  0  0  0
 17 22  1  0  0  0
 53 54  2  0  0  0
 53 55  1  0  0  0
 18 59  1  0  0  0
 19 21  1  0  0  0
 20 21  2  0  0  0
 57 58  1  0  0  0
 55 56  1  0  0  0
 59 60  1  0  0  0
 60 61  2  0  0  0
 60 62  1  0  0  0
M  END
> <minimizedAffinity>
11.78801

$$$$
ZINC000000105216


 18 19  0  0  0  0  0  0  0  0999 V2000
   27.9364   -0.7017   27.5298 C   0  0  0  0  0  0  0  0  0  0  0  0
   29.0783   -1.4090   27.9406 C   0  0  0  0  0  0  0  0  0  0  0  0
   27.8926    0.6812   27.7464 C   0  0  0  0  0  0  0  0  0  0  0  0
   30.1669   -0.7555   28.5450 C   0  0  0  0  0  0  0  0  0  0  0  0
   28.9675    1.3431   28.3450 C   0  0  0  0  0  0  0  0  0  0  0  0
   30.1110    0.6385   28.7475 C   0  0  0  0  0  0  0  0  0  0  0  0
   31.3108   -1.4584   28.9538 C   0  0  0  0  0  0  0  0  0  0  0  0
   31.2003    1.2891   29.3510 C   0  0  0  0  0  0  0  0  0  0  0  0
   32.3874   -0.7960   29.5539 C   0  0  0  0  0  0  0  0  0  0  0  0
   32.3363    0.5812   29.7544 C   0  0  0  0  0  0  0  0  0  0  0  0
   26.7770   -1.4425   26.8874 C   0  0  0  0  0  0  0  0  0  0  0  0
   25.5145   -0.5832   26.7756 C   0  0  0  0  0  0  0  0  0  0  0  0
   25.8953   -2.9247   28.6163 O   0  0  0  0  0  0  0  0  0  0  0  0
   26.5133   -2.7708   27.5731 C   0  0  0  0  0  0  0  0  0  0  0  0
   26.9836   -3.8460   26.9093 O   0  0  0  0  0  0  0  0  0  0  0  0
   26.6857   -4.6033   27.4558 H   0  0  0  0  0  0  0  0  0  0  0  0
   33.3141    1.3483   30.3260 O   0  0  0  0  0  0  0  0  0  0  0  0
   34.6341    1.1869   29.8230 C   0  0  0  0  0  0  0  0  0  0  0  0
 13 14  2  0  0  0
 14 15  1  0  0  0
 14 11  1  0  0  0
 15 16  1  0  0  0
 11  1  1  0  0  0
 11 12  1  0  0  0
  1  2  2  0  0  0
  1  3  1  0  0  0
  2  4  1  0  0  0
  3  5  2  0  0  0
  4  6  1  0  0  0
  4  7  2  0  0  0
  5  6  1  0  0  0
  6  8  2  0  0  0
  7  9  1  0  0  0
  8 10  1  0  0  0
  9 10  2  0  0  0
 10 17  1  0  0  0
 17 18  1  0  0  0
M  END
> <minimizedAffinity>
-7.99182

$$$$
ZINC000001542002


 26 26  0  0  0  0  0  0  0  0999 V2000
   29.3674    0.4782   27.9065 C   0  0  0  0  0  0  0  0  0  0  0  0
   29.9358   -0.7425   28.2878 C   0  0  0  0  0  0  0  0  0  0  0  0
   29.8498    1.6604   28.4807 C   0  0  0  0  0  0  0  0  0  0  0  0
   30.9614   -0.7813   29.2349 C   0  0  0  0  0  0  0  0  0  0  0  0
   30.8761    1.6213   29.4275 C   0  0  0  0  0  0  0  0  0  0  0  0
   31.4404    0.4001   29.8149 C   0  0  0  0  0  0  0  0  0  0  0  0
   28.2711    0.5222   26.8680 C   0  0  0  0  0  0  0  0  0  0  0  0
   26.8945    0.2805   27.5018 C   0  0  0  0  0  0  0  0  0  0  0  0
   26.2627   -1.1035   27.1896 C   0  0  0  0  0  0  0  0  0  0  0  0
   24.8822   -0.8881   26.6867 N   0  0  0  0  0  0  0  0  0  0  0  0
   24.3409   -0.5033   27.4689 H   0  0  0  0  0  0  0  0  0  0  0  0
   24.4443   -1.7967   26.5259 H   0  0  0  0  0  0  0  0  0  0  0  0
   27.1943   -3.2679   26.5072 O   0  0  0  0  0  0  0  0  0  0  0  0
   27.0825   -1.8960   26.1415 C   0  0  0  0  0  0  0  0  0  0  0  0
   27.7708   -3.6890   25.8452 H   0  0  0  0  0  0  0  0  0  0  0  0
   26.1886   -1.9377   28.5021 C   0  0  0  0  0  0  0  0  0  0  0  0
   25.3102   -3.0584   28.3554 O   0  0  0  0  0  0  0  0  0  0  0  0
   24.4010   -2.7147   28.4061 H   0  0  0  0  0  0  0  0  0  0  0  0
   32.5429    0.3560   30.8438 C   0  0  0  0  0  0  0  0  0  0  0  0
   33.7651    1.2061   30.4784 C   0  0  0  0  0  0  0  0  0  0  0  0
   34.3887    0.8132   29.1356 C   0  0  0  0  0  0  0  0  0  0  0  0
   34.6042    2.0389   28.2448 C   0  0  0  0  0  0  0  0  0  0  0  0
   33.6967    1.9983   27.0141 C   0  0  0  0  0  0  0  0  0  0  0  0
   33.2280    0.5732   26.7150 C   0  0  0  0  0  0  0  0  0  0  0  0
   32.1972    0.5520   25.5865 C   0  0  0  0  0  0  0  0  0  0  0  0
   31.8788   -0.8690   25.1489 C   0  0  0  0  0  0  0  0  0  0  0  0
 13 14  1  0  0  0
 13 15  1  0  0  0
 14  9  1  0  0  0
  9 10  1  0  0  0
  9 16  1  0  0  0
  9  8  1  0  0  0
 10 11  1  0  0  0
 10 12  1  0  0  0
 16 17  1  0  0  0
  8  7  1  0  0  0
 17 18  1  0  0  0
  7  1  1  0  0  0
  1  2  2  0  0  0
  1  3  1  0  0  0
  2  4  1  0  0  0
  3  5  2  0  0  0
  4  6  2  0  0  0
  5  6  1  0  0  0
  6 19  1  0  0  0
 19 20  1  0  0  0
 20 21  1  0  0  0
 21 22  1  0  0  0
 22 23  1  0  0  0
 23 24  1  0  0  0
 24 25  1  0  0  0
 25 26  1  0  0  0
M  END
> <minimizedAffinity>
-7.77029

$$$$
ZINC000001530788


 37 40  0  0  0  0  0  0  0  0999 V2000
   33.3888   -2.7497   23.8208 C   0  0  0  0  0  0  0  0  0  0  0  0
   34.0050   -4.0397   23.6437 O   0  0  0  0  0  0  0  0  0  0  0  0
   33.3370   -4.6958   23.9146 H   0  0  0  0  0  0  0  0  0  0  0  0
   32.9592   -2.6130   25.2848 C   0  0  0  0  0  0  0  0  0  0  0  0
   32.7450   -1.2182   25.5744 O   0  0  0  0  0  0  0  0  0  0  0  0
   30.1666   -0.8036   24.7684 O   0  0  0  0  0  0  0  0  0  0  0  0
   29.8718   -0.7777   25.9554 C   0  0  0  0  0  0  0  0  0  0  0  0
   30.8567   -0.8812   27.0524 C   0  0  0  0  0  0  0  0  0  0  0  0
   28.4616   -0.6195   26.3442 C   0  0  0  0  0  0  0  0  0  0  0  0
   30.3840   -0.7879   28.3635 C   0  0  0  0  0  0  0  0  0  0  0  0
   32.2280   -1.0603   26.8325 C   0  0  0  0  0  0  0  0  0  0  0  0
   28.1444   -0.5461   27.6421 C   0  0  0  0  0  0  0  0  0  0  0  0
   29.0592   -0.6114   28.6766 O   0  0  0  0  0  0  0  0  0  0  0  0
   31.2646   -0.8782   29.4448 C   0  0  0  0  0  0  0  0  0  0  0  0
   33.1064   -1.1749   27.9156 C   0  0  0  0  0  0  0  0  0  0  0  0
   32.6261   -1.0745   29.2205 C   0  0  0  0  0  0  0  0  0  0  0  0
   26.7110   -0.3794   27.9789 C   0  0  0  0  0  0  0  0  0  0  0  0
   26.0217   -1.1496   28.6235 O   0  0  0  0  0  0  0  0  0  0  0  0
   26.2046    0.7628   27.4825 O   0  0  0  0  0  0  0  0  0  0  0  0
   25.2679    0.7562   27.7690 H   0  0  0  0  0  0  0  0  0  0  0  0
   32.2013   -2.5949   22.8606 C   0  0  0  0  0  0  0  0  0  0  0  0
   32.2251   -3.6975   21.9337 O   0  0  0  0  0  0  0  0  0  0  0  0
   31.7707   -3.3057   20.7043 C   0  0  0  0  0  0  0  0  0  0  0  0
   32.6254   -3.0528   19.6233 C   0  0  0  0  0  0  0  0  0  0  0  0
   30.3834   -3.2534   20.5355 C   0  0  0  0  0  0  0  0  0  0  0  0
   34.1001   -3.1130   19.7214 C   0  0  0  0  0  0  0  0  0  0  0  0
   32.0709   -2.7244   18.3842 C   0  0  0  0  0  0  0  0  0  0  0  0
   29.8402   -2.9155   19.2972 C   0  0  0  0  0  0  0  0  0  0  0  0
   34.7156   -3.3271   20.7577 O   0  0  0  0  0  0  0  0  0  0  0  0
   34.8551   -2.8747   18.4803 C   0  0  0  0  0  0  0  0  0  0  0  0
   32.8221   -2.4663   17.2650 O   0  0  0  0  0  0  0  0  0  0  0  0
   30.6846   -2.6493   18.2211 C   0  0  0  0  0  0  0  0  0  0  0  0
   34.1995   -2.5714   17.3527 C   0  0  0  0  0  0  0  0  0  0  0  0
   34.9465   -2.3181   16.0956 C   0  0  0  0  0  0  0  0  0  0  0  0
   35.6569   -1.3507   15.8811 O   0  0  0  0  0  0  0  0  0  0  0  0
   34.7848   -3.2691   15.1578 O   0  0  0  0  0  0  0  0  0  0  0  0
   35.3324   -2.9509   14.4091 H   0  0  0  0  0  0  0  0  0  0  0  0
  6  7  2  0  0  0
  7  8  1  0  0  0
  7  9  1  0  0  0
  8 10  2  0  0  0
  8 11  1  0  0  0
  9 12  2  0  0  0
 10 13  1  0  0  0
 10 14  1  0  0  0
 11  5  1  0  0  0
 11 15  2  0  0  0
 12 17  1  0  0  0
 12 13  1  0  0  0
 14 16  2  0  0  0
  5  4  1  0  0  0
 15 16  1  0  0  0
 17 18  2  0  0  0
 17 19  1  0  0  0
  4  1  1  0  0  0
 19 20  1  0  0  0
  1  2  1  0  0  0
  1 21  1  0  0  0
  2  3  1  0  0  0
 21 22  1  0  0  0
 22 23  1  0  0  0
 23 24  2  0  0  0
 23 25  1  0  0  0
 24 26  1  0  0  0
 24 27  1  0  0  0
 25 28  2  0  0  0
 26 29  2  0  0  0
 26 30  1  0  0  0
 27 31  1  0  0  0
 27 32  2  0  0  0
 28 32  1  0  0  0
 30 33  2  0  0  0
 31 33  1  0  0  0
 33 34  1  0  0  0
 34 35  2  0  0  0
 34 36  1  0  0  0
 36 37  1  0  0  0
M  END
> <minimizedAffinity>
-9.04898

$$$$
ZINC000003795819


 22 26  0  0  0  0  0  0  0  0999 V2000
   30.0256    1.8929   26.9847 O   0  0  0  0  0  0  0  0  0  0  0  0
   29.8480    0.7464   27.3865 C   0  0  0  0  0  0  0  0  0  0  0  0
   30.8918   -0.1154   27.7487 N   0  0  0  0  0  0  0  0  0  0  0  0
   28.4550    0.2181   27.4988 C   0  0  0  0  0  0  0  0  0  0  0  0
   30.5749   -1.3591   28.4492 C   0  0  0  0  0  0  0  0  0  0  0  0
   28.2224   -1.1519   27.7148 C   0  0  0  0  0  0  0  0  0  0  0  0
   27.3774    1.1020   27.3765 C   0  0  0  0  0  0  0  0  0  0  0  0
   29.4076   -2.0859   27.7785 C   0  0  0  0  0  0  0  0  0  0  0  0
   26.9035   -1.6321   27.8161 C   0  0  0  0  0  0  0  0  0  0  0  0
   26.0710    0.6282   27.4810 C   0  0  0  0  0  0  0  0  0  0  0  0
   29.0758   -3.3953   28.5011 C   0  0  0  0  0  0  0  0  0  0  0  0
   25.8362   -0.7284   27.7063 C   0  0  0  0  0  0  0  0  0  0  0  0
   26.6110   -3.0823   28.1151 C   0  0  0  0  0  0  0  0  0  0  0  0
   27.8106   -4.0060   27.9067 C   0  0  0  0  0  0  0  0  0  0  0  0
   32.2767    0.3802   27.6507 C   0  0  0  0  0  0  0  0  0  0  0  0
   32.5295    1.7001   28.4249 C   0  0  0  0  0  0  0  0  0  0  0  0
   33.3900   -0.6370   28.0214 C   0  0  0  0  0  0  0  0  0  0  0  0
   33.8843    2.2444   27.9257 C   0  0  0  0  0  0  0  0  0  0  0  0
   32.7168    1.4292   29.9272 C   0  0  0  0  0  0  0  0  0  0  0  0
   34.4523   -0.0154   28.8553 N   0  0  0  0  0  0  0  0  0  0  0  0
   34.9748    1.1801   28.1522 C   0  0  0  0  0  0  0  0  0  0  0  0
   33.8503    0.4129   30.1356 C   0  0  0  0  0  0  0  0  0  0  0  0
  1  2  2  0  0  0
  2  3  1  0  0  0
  2  4  1  0  0  0
  3 15  1  0  0  0
  3  5  1  0  0  0
  4  6  2  0  0  0
  4  7  1  0  0  0
 15 16  1  0  0  0
 15 17  1  0  0  0
  5  8  1  0  0  0
  6  9  1  0  0  0
  6  8  1  0  0  0
  7 10  2  0  0  0
 16 18  1  0  0  0
 16 19  1  0  0  0
  8 11  1  0  0  0
  9 12  2  0  0  0
  9 13  1  0  0  0
 10 12  1  0  0  0
 18 21  1  0  0  0
 19 22  1  0  0  0
 20 17  1  0  0  0
 20 21  1  0  0  0
 20 22  1  0  0  0
 11 14  1  0  0  0
 13 14  1  0  0  0
M  END
> <minimizedAffinity>
-8.78896

$$$$
ZINC000003833821


 29 32  0  0  0  0  0  0  0  0999 V2000
   24.9646   -3.7198   28.6928 O   0  0  0  0  0  0  0  0  0  0  0  0
   25.9429   -3.1567   28.2179 C   0  0  0  0  0  0  0  0  0  0  0  0
   26.0256   -1.6839   28.1513 C   0  0  0  0  0  0  0  0  0  0  0  0
   27.0908   -3.9221   27.6978 C   0  0  0  0  0  0  0  0  0  0  0  0
   27.0954   -1.0558   27.6317 C   0  0  0  0  0  0  0  0  0  0  0  0
   28.1564   -3.2983   27.1786 C   0  0  0  0  0  0  0  0  0  0  0  0
   28.3189   -1.7861   27.0558 C   0  0  0  0  0  0  0  0  0  0  0  0
   27.1734    0.4486   27.6375 C   0  0  0  0  0  0  0  0  0  0  0  0
   29.5763   -1.3038   27.8782 C   0  0  0  0  0  0  0  0  0  0  0  0
   28.3930   -1.4819   25.5430 C   0  0  0  0  0  0  0  0  0  0  0  0
   28.3976    0.9077   28.4205 C   0  0  0  0  0  0  0  0  0  0  0  0
   30.9288   -1.9803   27.5082 C   0  0  0  0  0  0  0  0  0  0  0  0
   29.6987    0.2584   27.9125 C   0  0  0  0  0  0  0  0  0  0  0  0
   31.2096   -1.8385   26.1232 O   0  0  0  0  0  0  0  0  0  0  0  0
   32.1267   -1.4530   28.3296 C   0  0  0  0  0  0  0  0  0  0  0  0
   30.8792    0.6386   28.8191 C   0  0  0  0  0  0  0  0  0  0  0  0
   32.2430    0.0870   28.3384 C   0  0  0  0  0  0  0  0  0  0  0  0
   31.1576    2.1153   29.0686 C   0  0  0  0  0  0  0  0  0  0  0  0
   33.1784    0.7105   29.4269 C   0  0  0  0  0  0  0  0  0  0  0  0
   32.6555    0.6104   26.9363 C   0  0  0  0  0  0  0  0  0  0  0  0
   32.5947    2.1420   29.6220 C   0  0  0  0  0  0  0  0  0  0  0  0
   33.0301    0.0022   30.6633 O   0  0  0  0  0  0  0  0  0  0  0  0
   32.0208   -2.3400   25.9276 H   0  0  0  0  0  0  0  0  0  0  0  0
   33.3495    0.5735   31.3856 H   0  0  0  0  0  0  0  0  0  0  0  0
   34.6752    0.7356   29.0489 C   0  0  0  0  0  0  0  0  0  0  0  0
   35.3823   -0.2775   29.0381 O   0  0  0  0  0  0  0  0  0  0  0  0
   35.2793    2.0799   28.6567 C   0  0  0  0  0  0  0  0  0  0  0  0
   36.0147    1.9849   27.4430 O   0  0  0  0  0  0  0  0  0  0  0  0
   35.6514    1.2134   26.9622 H   0  0  0  0  0  0  0  0  0  0  0  0
  1  2  2  0  0  0
  2  3  1  0  0  0
  2  4  1  0  0  0
  3  5  2  0  0  0
  4  6  2  0  0  0
  5  7  1  0  0  0
  5  8  1  0  0  0
  6  7  1  0  0  0
  7  9  1  0  0  0
  7 10  1  0  0  0
  8 11  1  0  0  0
  9 12  1  0  0  0
  9 13  1  0  0  0
 11 13  1  0  0  0
 12 14  1  0  0  0
 12 15  1  0  0  0
 13 16  1  0  0  0
 14 23  1  0  0  0
 15 17  1  0  0  0
 16 18  1  0  0  0
 16 17  1  0  0  0
 17 19  1  0  0  0
 17 20  1  0  0  0
 18 21  1  0  0  0
 19 22  1  0  0  0
 19 25  1  0  0  0
 19 21  1  0  0  0
 22 24  1  0  0  0
 25 26  2  0  0  0
 25 27  1  0  0  0
 27 28  1  0  0  0
 28 29  1  0  0  0
M  END
> <minimizedAffinity>
-8.78797

$$$$
ZINC000019875504


 14 15  0  0  0  0  0  0  0  0999 V2000
   29.2859   -0.1268   27.4893 C   0  0  0  0  0  0  0  0  0  0  0  0
   28.5490   -1.4028   27.8067 C   0  0  0  0  0  0  0  0  0  0  0  0
   28.1881    0.9117   27.8156 C   0  0  0  0  0  0  0  0  0  0  0  0
   27.1640   -1.1906   27.7973 C   0  0  0  0  0  0  0  0  0  0  0  0
   29.0690   -2.6695   28.0281 C   0  0  0  0  0  0  0  0  0  0  0  0
   26.8477    0.2387   27.4879 C   0  0  0  0  0  0  0  0  0  0  0  0
   26.2764   -2.2319   28.0108 C   0  0  0  0  0  0  0  0  0  0  0  0
   28.1824   -3.7236   28.2580 C   0  0  0  0  0  0  0  0  0  0  0  0
   26.7958   -3.5062   28.2493 C   0  0  0  0  0  0  0  0  0  0  0  0
   30.5070    0.0296   28.2700 N   0  0  0  0  0  0  0  0  0  0  0  0
   30.7783   -0.8719   28.6587 H   0  0  0  0  0  0  0  0  0  0  0  0
   30.3556    0.9944   29.3501 C   0  0  0  0  0  0  0  0  0  0  0  0
   31.4201    0.7885   30.3407 C   0  0  0  0  0  0  0  0  0  0  0  0
   32.2901    0.6202   31.1517 C   0  0  0  0  0  0  0  0  0  0  0  0
 10  1  1  0  0  0
 10 12  1  0  0  0
 10 11  1  0  0  0
  1  2  1  0  0  0
  1  3  1  0  0  0
 12 13  1  0  0  0
  2  4  2  0  0  0
  2  5  1  0  0  0
  3  6  1  0  0  0
 13 14  3  0  0  0
  4  7  1  0  0  0
  4  6  1  0  0  0
  5  8  2  0  0  0
  7  9  2  0  0  0
  8  9  1  0  0  0
M  END
> <minimizedAffinity>
-6.76900

$$$$
ZINC000043450326


 41 45  0  0  0  0  0  0  0  0999 V2000
   37.7534   -3.8530   16.6818 C   0  0  0  0  0  0  0  0  0  0  0  0
   38.4632   -4.8556   17.5568 C   0  0  0  0  0  0  0  0  0  0  0  0
   37.0520   -2.9842   17.7565 C   0  0  0  0  0  0  0  0  0  0  0  0
   38.6306   -4.3802   18.8012 C   0  0  0  0  0  0  0  0  0  0  0  0
   36.5138   -1.6190   17.3682 C   0  0  0  0  0  0  0  0  0  0  0  0
   38.0798   -2.9724   18.9260 C   0  0  0  0  0  0  0  0  0  0  0  0
   35.8627   -0.7963   18.3330 C   0  0  0  0  0  0  0  0  0  0  0  0
   36.6203   -1.1619   16.0358 C   0  0  0  0  0  0  0  0  0  0  0  0
   37.5744   -2.7685   20.2905 N   0  0  0  0  0  0  0  0  0  0  0  0
   39.2479   -1.9777   18.7815 C   0  0  0  0  0  0  0  0  0  0  0  0
   35.3531    0.4642   17.9386 C   0  0  0  0  0  0  0  0  0  0  0  0
   35.6374   -1.1464   19.7941 C   0  0  0  0  0  0  0  0  0  0  0  0
   36.1058    0.0731   15.7043 C   0  0  0  0  0  0  0  0  0  0  0  0
   36.1511   -2.4618   20.4081 C   0  0  0  0  0  0  0  0  0  0  0  0
   38.4478   -1.8215   20.9952 C   0  0  0  0  0  0  0  0  0  0  0  0
   39.7432   -1.8177   20.2073 C   0  0  0  0  0  0  0  0  0  0  0  0
   35.4896    0.8670   16.6308 C   0  0  0  0  0  0  0  0  0  0  0  0
   36.1360    0.6410   14.4695 O   0  0  0  0  0  0  0  0  0  0  0  0
   35.0509    2.0407   16.1053 O   0  0  0  0  0  0  0  0  0  0  0  0
   35.4580    1.8877   14.7294 C   0  0  0  0  0  0  0  0  0  0  0  0
   38.8300   -6.0542   17.0147 O   0  0  0  0  0  0  0  0  0  0  0  0
   38.9583   -7.1392   17.9265 C   0  0  0  0  0  0  0  0  0  0  0  0
   36.7650   -4.5115   15.8813 O   0  0  0  0  0  0  0  0  0  0  0  0
   35.6935   -5.6889   17.5425 O   0  0  0  0  0  0  0  0  0  0  0  0
   35.6763   -4.9714   16.5473 C   0  0  0  0  0  0  0  0  0  0  0  0
   34.3662   -4.4583   15.9188 C   0  0  0  0  0  0  0  0  0  0  0  0
   34.6971   -3.8106   14.6785 O   0  0  0  0  0  0  0  0  0  0  0  0
   35.5723   -4.1521   14.4003 H   0  0  0  0  0  0  0  0  0  0  0  0
   33.7256   -3.4270   16.8762 C   0  0  0  0  0  0  0  0  0  0  0  0
   33.2280   -3.9942   18.2145 C   0  0  0  0  0  0  0  0  0  0  0  0
   32.3273   -2.9859   18.9350 C   0  0  0  0  0  0  0  0  0  0  0  0
   30.8329   -3.0474   18.5589 C   0  0  0  0  0  0  0  0  0  0  0  0
   30.6135   -4.2951   17.8858 O   0  0  0  0  0  0  0  0  0  0  0  0
   29.9259   -3.0505   19.7899 C   0  0  0  0  0  0  0  0  0  0  0  0
   30.4228   -1.9269   17.6006 C   0  0  0  0  0  0  0  0  0  0  0  0
   31.1625   -4.2985   17.0829 H   0  0  0  0  0  0  0  0  0  0  0  0
   33.5177   -5.6980   15.6201 C   0  0  0  0  0  0  0  0  0  0  0  0
   34.1433   -6.6241   14.6184 C   0  0  0  0  0  0  0  0  0  0  0  0
   34.5639   -6.2623   13.5266 O   0  0  0  0  0  0  0  0  0  0  0  0
   34.1772   -7.8990   15.0889 O   0  0  0  0  0  0  0  0  0  0  0  0
   33.1695   -8.1916   16.0568 C   0  0  0  0  0  0  0  0  0  0  0  0
 24 25  2  0  0  0
 25 23  1  0  0  0
 23  1  1  0  0  0
 26 25  1  0  0  0
 26 27  1  0  0  0
 26 37  1  0  0  0
 26 29  1  0  0  0
  1  2  1  0  0  0
  1  3  1  0  0  0
 27 28  1  0  0  0
 37 38  1  0  0  0
 29 30  1  0  0  0
  2 21  1  0  0  0
  2  4  2  0  0  0
  3  5  1  0  0  0
  3  6  1  0  0  0
 38 39  2  0  0  0
 38 40  1  0  0  0
 30 31  1  0  0  0
 21 22  1  0  0  0
  5  7  2  0  0  0
  5  8  1  0  0  0
  6  9  1  0  0  0
  6 10  1  0  0  0
  6  4  1  0  0  0
 40 41  1  0  0  0
 31 32  1  0  0  0
  7 11  1  0  0  0
  7 12  1  0  0  0
  8 13  2  0  0  0
  9 14  1  0  0  0
  9 15  1  0  0  0
 10 16  1  0  0  0
 32 33  1  0  0  0
 32 34  1  0  0  0
 32 35  1  0  0  0
 11 17  2  0  0  0
 12 14  1  0  0  0
 13 18  1  0  0  0
 13 17  1  0  0  0
 15 16  1  0  0  0
 33 36  1  0  0  0
 17 19  1  0  0  0
 18 20  1  0  0  0
 19 20  1  0  0  0
M  END
> <minimizedAffinity>
-7.10435

$$$$
ZINC000085432544


 62 70  0  0  0  0  0  0  0  0999 V2000
   34.3389   -3.1888   20.7097 C   0  0  0  0  0  0  0  0  0  0  0  0
   35.5314   -2.4514   20.9408 C   0  0  0  0  0  0  0  0  0  0  0  0
   34.1033   -3.6594   19.4020 C   0  0  0  0  0  0  0  0  0  0  0  0
   36.4285   -2.1639   19.9007 C   0  0  0  0  0  0  0  0  0  0  0  0
   35.0015   -3.3590   18.3838 C   0  0  0  0  0  0  0  0  0  0  0  0
   36.1538   -2.6161   18.6256 C   0  0  0  0  0  0  0  0  0  0  0  0
   34.9103   -3.6624   16.9062 C   0  0  0  0  0  0  0  0  0  0  0  0
   36.9180   -2.4566   17.4836 N   0  0  0  0  0  0  0  0  0  0  0  0
   36.3697   -3.3336   16.4273 C   0  0  0  0  0  0  0  0  0  0  0  0
   34.3633   -5.0368   16.4929 C   0  0  0  0  0  0  0  0  0  0  0  0
   33.8865   -2.7142   16.2567 C   0  0  0  0  0  0  0  0  0  0  0  0
   37.7041   -1.2730   17.2279 C   0  0  0  0  0  0  0  0  0  0  0  0
   37.2490   -4.6012   16.1997 C   0  0  0  0  0  0  0  0  0  0  0  0
   33.7194   -4.8136   15.1794 N   0  0  0  0  0  0  0  0  0  0  0  0
   35.3020   -6.2781   16.7113 C   0  0  0  0  0  0  0  0  0  0  0  0
   33.5945   -3.3785   14.9239 C   0  0  0  0  0  0  0  0  0  0  0  0
   37.1988   -4.9346   14.7891 O   0  0  0  0  0  0  0  0  0  0  0  0
   36.7691   -5.8076   17.0442 C   0  0  0  0  0  0  0  0  0  0  0  0
   34.1872   -5.5546   14.0215 C   0  0  0  0  0  0  0  0  0  0  0  0
   35.2836   -7.2200   15.5129 C   0  0  0  0  0  0  0  0  0  0  0  0
   34.7617   -6.8940   14.3257 C   0  0  0  0  0  0  0  0  0  0  0  0
   37.8471   -4.3556   14.3434 H   0  0  0  0  0  0  0  0  0  0  0  0
   33.3575   -3.5303   21.8904 C   0  0  0  0  0  0  0  0  0  0  0  0
   31.8931   -3.0107   21.5543 C   0  0  0  0  0  0  0  0  0  0  0  0
   34.1262   -3.0569   23.1754 C   0  0  0  0  0  0  0  0  0  0  0  0
   31.3661   -3.5108   20.3643 N   0  0  0  0  0  0  0  0  0  0  0  0
   30.8836   -2.1641   22.0667 C   0  0  0  0  0  0  0  0  0  0  0  0
   33.3103   -2.5579   24.3495 C   0  0  0  0  0  0  0  0  0  0  0  0
   30.0658   -3.1571   20.1629 C   0  0  0  0  0  0  0  0  0  0  0  0
   29.7222   -2.3171   21.2069 C   0  0  0  0  0  0  0  0  0  0  0  0
   30.8332   -1.1796   23.2219 C   0  0  0  0  0  0  0  0  0  0  0  0
   32.1107   -3.4227   24.7376 C   0  0  0  0  0  0  0  0  0  0  0  0
   34.0862   -2.2236   25.6283 C   0  0  0  0  0  0  0  0  0  0  0  0
   29.1848   -3.5134   19.1348 C   0  0  0  0  0  0  0  0  0  0  0  0
   28.4092   -1.7913   21.2228 C   0  0  0  0  0  0  0  0  0  0  0  0
   30.3582   -1.7011   24.6119 C   0  0  0  0  0  0  0  0  0  0  0  0
   31.1573   -2.5988   25.4632 N   0  0  0  0  0  0  0  0  0  0  0  0
   33.1817   -1.3887   26.5747 C   0  0  0  0  0  0  0  0  0  0  0  0
   27.8931   -2.9849   19.1781 C   0  0  0  0  0  0  0  0  0  0  0  0
   27.5071   -2.1339   20.2082 C   0  0  0  0  0  0  0  0  0  0  0  0
   31.7608   -2.0429   26.6826 C   0  0  0  0  0  0  0  0  0  0  0  0
   33.8044   -1.4254   27.8708 O   0  0  0  0  0  0  0  0  0  0  0  0
   31.8712   -4.1431   19.7578 H   0  0  0  0  0  0  0  0  0  0  0  0
   33.2223   -0.9598   28.4954 H   0  0  0  0  0  0  0  0  0  0  0  0
   32.1606   -5.6658   22.4297 O   0  0  0  0  0  0  0  0  0  0  0  0
   33.1856   -5.1002   22.0623 C   0  0  0  0  0  0  0  0  0  0  0  0
   34.3355   -5.7847   21.7496 O   0  0  0  0  0  0  0  0  0  0  0  0
   34.1371   -6.8797   20.8529 C   0  0  0  0  0  0  0  0  0  0  0  0
   33.0502    0.1001   26.1698 C   0  0  0  0  0  0  0  0  0  0  0  0
   31.8681    0.8339   26.7942 C   0  0  0  0  0  0  0  0  0  0  0  0
   35.8426   -2.1228   22.2379 O   0  0  0  0  0  0  0  0  0  0  0  0
   37.2436   -2.0599   22.4967 C   0  0  0  0  0  0  0  0  0  0  0  0
   38.7304   -4.3061   16.5294 C   0  0  0  0  0  0  0  0  0  0  0  0
   39.2316   -4.2018   17.6408 O   0  0  0  0  0  0  0  0  0  0  0  0
   39.4425   -4.1936   15.3557 O   0  0  0  0  0  0  0  0  0  0  0  0
   40.1352   -2.9505   15.2251 C   0  0  0  0  0  0  0  0  0  0  0  0
   34.7873   -7.1294   17.9305 C   0  0  0  0  0  0  0  0  0  0  0  0
   33.8321   -8.2832   17.6158 C   0  0  0  0  0  0  0  0  0  0  0  0
   37.6992   -6.9161   16.8489 O   0  0  0  0  0  0  0  0  0  0  0  0
   38.1617   -7.5547   17.9579 C   0  0  0  0  0  0  0  0  0  0  0  0
   37.4802   -8.1432   18.7842 O   0  0  0  0  0  0  0  0  0  0  0  0
   39.6552   -7.4567   18.0118 C   0  0  0  0  0  0  0  0  0  0  0  0
 45 46  2  0  0  0
 46 47  1  0  0  0
 47 48  1  0  0  0
 23 46  1  0  0  0
 23  1  1  0  0  0
 23 24  1  0  0  0
 23 25  1  0  0  0
  1  2  2  0  0  0
  1  3  1  0  0  0
 24 26  1  0  0  0
 24 27  2  0  0  0
 25 28  1  0  0  0
  2 51  1  0  0  0
  2  4  1  0  0  0
  3  5  2  0  0  0
 26 29  1  0  0  0
 26 43  1  0  0  0
 27 30  1  0  0  0
 27 31  1  0  0  0
 28 32  1  0  0  0
 28 33  1  0  0  0
 51 52  1  0  0  0
  4  6  2  0  0  0
  5  6  1  0  0  0
 29 34  1  0  0  0
 29 30  2  0  0  0
 30 35  1  0  0  0
 31 36  1  0  0  0
 33 38  1  0  0  0
  6  8  1  0  0  0
  7  5  1  0  0  0
  7  9  1  0  0  0
  7 10  1  0  0  0
  7 11  1  0  0  0
 34 39  2  0  0  0
 35 40  2  0  0  0
 36 37  1  0  0  0
 37 32  1  0  0  0
 37 41  1  0  0  0
 38 42  1  0  0  0
 38 49  1  0  0  0
 38 41  1  0  0  0
  8 12  1  0  0  0
  8  9  1  0  0  0
  9 13  1  0  0  0
 10 14  1  0  0  0
 10 15  1  0  0  0
 11 16  1  0  0  0
 39 40  1  0  0  0
 42 44  1  0  0  0
 49 50  1  0  0  0
 13 17  1  0  0  0
 13 53  1  0  0  0
 13 18  1  0  0  0
 14 19  1  0  0  0
 14 16  1  0  0  0
 15 20  1  0  0  0
 15 57  1  0  0  0
 15 18  1  0  0  0
 17 22  1  0  0  0
 53 54  2  0  0  0
 53 55  1  0  0  0
 18 59  1  0  0  0
 19 21  1  0  0  0
 20 21  2  0  0  0
 57 58  1  0  0  0
 55 56  1  0  0  0
 59 60  1  0  0  0
 60 61  2  0  0  0
 60 62  1  0  0  0
M  END
> <minimizedAffinity>
9.04433

$$$$
ZINC000100071256


 14 14  0  0  0  0  0  0  0  0999 V2000
   26.9923   -2.0437   27.3758 C   0  0  0  0  0  0  0  0  0  0  0  0
   26.5029   -0.8188   28.1530 C   0  0  0  0  0  0  0  0  0  0  0  0
   28.4974   -1.9660   27.0942 C   0  0  0  0  0  0  0  0  0  0  0  0
   26.9056    0.4880   27.4700 C   0  0  0  0  0  0  0  0  0  0  0  0
   28.8739   -0.6563   26.4045 C   0  0  0  0  0  0  0  0  0  0  0  0
   28.4161    0.5842   27.1912 C   0  0  0  0  0  0  0  0  0  0  0  0
   27.4326   -4.1502   28.5493 O   0  0  0  0  0  0  0  0  0  0  0  0
   26.6552   -3.3063   28.1373 C   0  0  0  0  0  0  0  0  0  0  0  0
   25.3303   -3.4407   28.3456 O   0  0  0  0  0  0  0  0  0  0  0  0
   25.2516   -4.2848   28.8379 H   0  0  0  0  0  0  0  0  0  0  0  0
   29.1999    0.8199   28.4994 C   0  0  0  0  0  0  0  0  0  0  0  0
   30.4707    1.4992   28.2685 N   0  0  0  0  0  0  0  0  0  0  0  0
   30.9225    1.6782   29.1646 H   0  0  0  0  0  0  0  0  0  0  0  0
   31.1038    0.8853   27.7579 H   0  0  0  0  0  0  0  0  0  0  0  0
  7  8  2  0  0  0
  8  9  1  0  0  0
  8  1  1  0  0  0
  9 10  1  0  0  0
  1  2  1  0  0  0
  1  3  1  0  0  0
  2  4  1  0  0  0
  3  5  1  0  0  0
  4  6  1  0  0  0
  5  6  1  0  0  0
  6 11  1  0  0  0
 11 12  1  0  0  0
 12 13  1  0  0  0
 12 14  1  0  0  0
M  END
> <minimizedAffinity>
-5.99158

$$$$
ZINC000254134439


 40 41  0  0  0  0  0  0  0  0999 V2000
   31.4549   -3.7552   17.3852 S   0  0  0  0  0  0  0  0  0  0  0  0
   32.4500   -2.2141   18.3168 S   0  0  0  0  0  0  0  0  0  0  0  0
   32.1584   -5.3198   18.0766 C   0  0  0  0  0  0  0  0  0  0  0  0
   33.4568   -1.5075   16.9688 C   0  0  0  0  0  0  0  0  0  0  0  0
   33.6860   -5.4174   18.2554 C   0  0  0  0  0  0  0  0  0  0  0  0
   34.7567   -0.8665   17.4728 C   0  0  0  0  0  0  0  0  0  0  0  0
   34.3998   -4.8859   17.0795 N   0  0  0  0  0  0  0  0  0  0  0  0
   34.0524   -4.8859   19.6663 C   0  0  0  0  0  0  0  0  0  0  0  0
   35.3955   -0.0909   16.3551 C   0  0  0  0  0  0  0  0  0  0  0  0
   35.7132   -5.1618   16.8126 C   0  0  0  0  0  0  0  0  0  0  0  0
   33.5002   -5.3446   20.6630 O   0  0  0  0  0  0  0  0  0  0  0  0
   35.0383   -3.9301   19.6675 N   0  0  0  0  0  0  0  0  0  0  0  0
   36.6464   -0.0939   15.8683 C   0  0  0  0  0  0  0  0  0  0  0  0
   36.4535   -5.5088   17.7363 O   0  0  0  0  0  0  0  0  0  0  0  0
   36.2846   -4.7665   15.4294 C   0  0  0  0  0  0  0  0  0  0  0  0
   35.4912   -3.1020   20.6697 C   0  0  0  0  0  0  0  0  0  0  0  0
   37.9367   -0.7899   16.2389 C   0  0  0  0  0  0  0  0  0  0  0  0
   36.8738   -3.4345   15.5889 N   0  0  0  0  0  0  0  0  0  0  0  0
   36.8133   -2.4148   20.4047 C   0  0  0  0  0  0  0  0  0  0  0  0
   34.8920   -2.7621   21.8236 C   0  0  0  0  0  0  0  0  0  0  0  0
   37.8595   -1.5712   17.4456 O   0  0  0  0  0  0  0  0  0  0  0  0
   38.4838   -1.6363   15.0821 C   0  0  0  0  0  0  0  0  0  0  0  0
   37.6845   -2.8527   14.6484 C   0  0  0  0  0  0  0  0  0  0  0  0
   37.0755   -1.2925   20.8217 O   0  0  0  0  0  0  0  0  0  0  0  0
   37.6840   -3.1563   19.6344 N   0  0  0  0  0  0  0  0  0  0  0  0
   33.5266   -3.0881   22.3294 C   0  0  0  0  0  0  0  0  0  0  0  0
   39.0614   -1.6937   18.1002 C   0  0  0  0  0  0  0  0  0  0  0  0
   37.8453   -3.3316   13.5282 O   0  0  0  0  0  0  0  0  0  0  0  0
   39.0100   -2.6284   19.3247 C   0  0  0  0  0  0  0  0  0  0  0  0
   40.1026   -1.1638   17.7218 O   0  0  0  0  0  0  0  0  0  0  0  0
   33.8242   -4.4563   16.3697 H   0  0  0  0  0  0  0  0  0  0  0  0
   35.5594   -3.8778   18.8016 H   0  0  0  0  0  0  0  0  0  0  0  0
   36.8601   -3.0137   16.5127 H   0  0  0  0  0  0  0  0  0  0  0  0
   37.4512   -4.1116   19.3808 H   0  0  0  0  0  0  0  0  0  0  0  0
   35.3941   -4.9728   14.1760 C   0  0  0  0  0  0  0  0  0  0  0  0
   34.9750   -6.4351   13.9947 C   0  0  0  0  0  0  0  0  0  0  0  0
   34.1851   -4.0447   14.0419 C   0  0  0  0  0  0  0  0  0  0  0  0
   40.0796   -3.7411   19.1937 C   0  0  0  0  0  0  0  0  0  0  0  0
   39.8319   -4.6951   18.0231 C   0  0  0  0  0  0  0  0  0  0  0  0
   40.2217   -4.5344   20.4965 C   0  0  0  0  0  0  0  0  0  0  0  0
  1  2  1  0  0  0
  1  3  1  0  0  0
  2  4  1  0  0  0
  3  5  1  0  0  0
  4  6  1  0  0  0
  5  7  1  0  0  0
  5  8  1  0  0  0
  6  9  1  0  0  0
  7 10  1  0  0  0
  7 31  1  0  0  0
  8 11  2  0  0  0
  8 12  1  0  0  0
  9 13  2  0  0  0
 10 14  2  0  0  0
 10 15  1  0  0  0
 12 16  1  0  0  0
 12 32  1  0  0  0
 13 17  1  0  0  0
 15 18  1  0  0  0
 15 35  1  0  0  0
 16 19  1  0  0  0
 16 20  2  0  0  0
 17 21  1  0  0  0
 17 22  1  0  0  0
 18 23  1  0  0  0
 18 33  1  0  0  0
 35 36  1  0  0  0
 35 37  1  0  0  0
 19 24  2  0  0  0
 19 25  1  0  0  0
 20 26  1  0  0  0
 21 27  1  0  0  0
 22 23  1  0  0  0
 23 28  2  0  0  0
 25 29  1  0  0  0
 25 34  1  0  0  0
 27 30  2  0  0  0
 27 29  1  0  0  0
 29 38  1  0  0  0
 38 39  1  0  0  0
 38 40  1  0  0  0
M  END
> <minimizedAffinity>
-5.79235

$$$$
ZINC000043450324


 41 45  0  0  0  0  0  0  0  0999 V2000
   36.4632   -3.0744   18.9634 C   0  0  0  0  0  0  0  0  0  0  0  0
   37.6594   -2.1623   19.0008 C   0  0  0  0  0  0  0  0  0  0  0  0
   36.2490   -3.1971   17.4355 C   0  0  0  0  0  0  0  0  0  0  0  0
   38.3320   -2.1986   17.8391 C   0  0  0  0  0  0  0  0  0  0  0  0
   35.3440   -4.3116   16.9375 C   0  0  0  0  0  0  0  0  0  0  0  0
   37.6960   -3.1722   16.8515 C   0  0  0  0  0  0  0  0  0  0  0  0
   34.9738   -4.3106   15.5629 C   0  0  0  0  0  0  0  0  0  0  0  0
   34.8292   -5.3092   17.7855 C   0  0  0  0  0  0  0  0  0  0  0  0
   37.8845   -2.7046   15.4570 N   0  0  0  0  0  0  0  0  0  0  0  0
   38.4660   -4.5015   16.8910 C   0  0  0  0  0  0  0  0  0  0  0  0
   34.1043   -5.2948   15.0583 C   0  0  0  0  0  0  0  0  0  0  0  0
   35.5142   -3.2531   14.6253 C   0  0  0  0  0  0  0  0  0  0  0  0
   33.9811   -6.2569   17.2503 C   0  0  0  0  0  0  0  0  0  0  0  0
   37.0322   -3.3677   14.4427 C   0  0  0  0  0  0  0  0  0  0  0  0
   39.2974   -3.0283   15.1466 C   0  0  0  0  0  0  0  0  0  0  0  0
   39.6412   -4.2860   15.9404 C   0  0  0  0  0  0  0  0  0  0  0  0
   33.6275   -6.2500   15.9259 C   0  0  0  0  0  0  0  0  0  0  0  0
   33.4030   -7.2798   17.9354 O   0  0  0  0  0  0  0  0  0  0  0  0
   32.7817   -7.2651   15.6059 O   0  0  0  0  0  0  0  0  0  0  0  0
   32.6276   -7.9024   16.8905 C   0  0  0  0  0  0  0  0  0  0  0  0
   37.9082   -1.4538   20.1416 O   0  0  0  0  0  0  0  0  0  0  0  0
   39.0838   -1.8117   20.8583 C   0  0  0  0  0  0  0  0  0  0  0  0
   35.3241   -2.4407   19.5494 O   0  0  0  0  0  0  0  0  0  0  0  0
   35.6575   -3.0899   21.7242 O   0  0  0  0  0  0  0  0  0  0  0  0
   34.9251   -2.9214   20.7549 C   0  0  0  0  0  0  0  0  0  0  0  0
   33.4060   -3.2121   20.7661 C   0  0  0  0  0  0  0  0  0  0  0  0
   33.1254   -4.6151   20.8081 O   0  0  0  0  0  0  0  0  0  0  0  0
   32.1586   -4.7301   20.7050 H   0  0  0  0  0  0  0  0  0  0  0  0
   32.7759   -2.5538   22.0168 C   0  0  0  0  0  0  0  0  0  0  0  0
   32.7391   -3.4866   23.2405 C   0  0  0  0  0  0  0  0  0  0  0  0
   33.3219   -2.7992   24.4797 C   0  0  0  0  0  0  0  0  0  0  0  0
   32.2849   -2.1524   25.4217 C   0  0  0  0  0  0  0  0  0  0  0  0
   31.4833   -3.2093   25.9679 O   0  0  0  0  0  0  0  0  0  0  0  0
   32.9345   -1.4367   26.6060 C   0  0  0  0  0  0  0  0  0  0  0  0
   31.3432   -1.2035   24.6757 C   0  0  0  0  0  0  0  0  0  0  0  0
   31.0445   -3.6630   25.2280 H   0  0  0  0  0  0  0  0  0  0  0  0
   32.8856   -2.6122   19.4490 C   0  0  0  0  0  0  0  0  0  0  0  0
   31.6588   -3.3125   18.9330 C   0  0  0  0  0  0  0  0  0  0  0  0
   31.5575   -3.7916   17.8106 O   0  0  0  0  0  0  0  0  0  0  0  0
   30.6779   -3.3019   19.8752 O   0  0  0  0  0  0  0  0  0  0  0  0
   29.3853   -2.9654   19.3686 C   0  0  0  0  0  0  0  0  0  0  0  0
 24 25  2  0  0  0
 25 23  1  0  0  0
 23  1  1  0  0  0
 26 25  1  0  0  0
 26 27  1  0  0  0
 26 37  1  0  0  0
 26 29  1  0  0  0
  1  2  1  0  0  0
  1  3  1  0  0  0
 27 28  1  0  0  0
 37 38  1  0  0  0
 29 30  1  0  0  0
  2 21  1  0  0  0
  2  4  2  0  0  0
  3  5  1  0  0  0
  3  6  1  0  0  0
 38 39  2  0  0  0
 38 40  1  0  0  0
 30 31  1  0  0  0
 21 22  1  0  0  0
  5  7  2  0  0  0
  5  8  1  0  0  0
  6  9  1  0  0  0
  6 10  1  0  0  0
  6  4  1  0  0  0
 40 41  1  0  0  0
 31 32  1  0  0  0
  7 11  1  0  0  0
  7 12  1  0  0  0
  8 13  2  0  0  0
  9 14  1  0  0  0
  9 15  1  0  0  0
 10 16  1  0  0  0
 32 33  1  0  0  0
 32 34  1  0  0  0
 32 35  1  0  0  0
 11 17  2  0  0  0
 12 14  1  0  0  0
 13 18  1  0  0  0
 13 17  1  0  0  0
 15 16  1  0  0  0
 33 36  1  0  0  0
 17 19  1  0  0  0
 18 20  1  0  0  0
 19 20  1  0  0  0
M  END
> <minimizedAffinity>
-7.09646

$$$$
ZINC000085537011


 53 58  0  0  0  0  0  0  0  0999 V2000
   32.4341   -4.2647   15.5133 O   0  0  0  0  0  0  0  0  0  0  0  0
   33.6108   -4.4177   15.8572 C   0  0  0  0  0  0  0  0  0  0  0  0
   34.1780   -3.4684   16.8614 C   0  0  0  0  0  0  0  0  0  0  0  0
   34.4498   -5.5545   15.2669 C   0  0  0  0  0  0  0  0  0  0  0  0
   33.3238   -2.7295   17.5918 C   0  0  0  0  0  0  0  0  0  0  0  0
   35.6034   -3.2492   17.3122 C   0  0  0  0  0  0  0  0  0  0  0  0
   34.9235   -6.5854   16.3196 C   0  0  0  0  0  0  0  0  0  0  0  0
   33.6892   -6.2150   14.1064 C   0  0  0  0  0  0  0  0  0  0  0  0
   34.0147   -1.8976   18.6227 C   0  0  0  0  0  0  0  0  0  0  0  0
   35.4792   -1.9175   18.1204 C   0  0  0  0  0  0  0  0  0  0  0  0
   36.7001   -3.1267   16.2333 C   0  0  0  0  0  0  0  0  0  0  0  0
   36.1086   -7.3944   15.7451 C   0  0  0  0  0  0  0  0  0  0  0  0
   33.9290   -2.5020   20.0178 C   0  0  0  0  0  0  0  0  0  0  0  0
   36.5278   -1.7908   19.2106 C   0  0  0  0  0  0  0  0  0  0  0  0
   37.8395   -4.1235   16.3682 C   0  0  0  0  0  0  0  0  0  0  0  0
   36.8962   -8.2115   16.7757 C   0  0  0  0  0  0  0  0  0  0  0  0
   34.8071   -1.7113   20.9911 C   0  0  0  0  0  0  0  0  0  0  0  0
   32.5861   -2.4763   20.7252 C   0  0  0  0  0  0  0  0  0  0  0  0
   36.2422   -1.6922   20.5258 C   0  0  0  0  0  0  0  0  0  0  0  0
   38.9076   -4.0096   15.7840 O   0  0  0  0  0  0  0  0  0  0  0  0
   37.5006   -5.1601   17.1657 O   0  0  0  0  0  0  0  0  0  0  0  0
   37.6192   -7.4327   17.8871 C   0  0  0  0  0  0  0  0  0  0  0  0
   34.4499   -2.3696   22.3276 C   0  0  0  0  0  0  0  0  0  0  0  0
   32.9668   -2.7826   22.1837 C   0  0  0  0  0  0  0  0  0  0  0  0
   37.3103   -1.4917   21.5607 C   0  0  0  0  0  0  0  0  0  0  0  0
   38.4436   -6.2234   17.4057 C   0  0  0  0  0  0  0  0  0  0  0  0
   39.4698   -5.7728   18.4600 C   0  0  0  0  0  0  0  0  0  0  0  0
   38.9899   -4.6397   19.3601 C   0  0  0  0  0  0  0  0  0  0  0  0
   33.9027   -7.5338   16.6529 O   0  0  0  0  0  0  0  0  0  0  0  0
   32.6372   -7.2535   16.0553 C   0  0  0  0  0  0  0  0  0  0  0  0
   31.7434   -6.7203   17.0285 O   0  0  0  0  0  0  0  0  0  0  0  0
   32.0804   -8.5662   15.5142 C   0  0  0  0  0  0  0  0  0  0  0  0
   30.4617   -6.3865   16.4753 C   0  0  0  0  0  0  0  0  0  0  0  0
   30.6981   -8.3558   14.9032 C   0  0  0  0  0  0  0  0  0  0  0  0
   29.7580   -7.6547   15.9059 C   0  0  0  0  0  0  0  0  0  0  0  0
   29.6645   -5.7416   17.6069 C   0  0  0  0  0  0  0  0  0  0  0  0
   28.3947   -7.3794   15.3984 N   0  0  0  0  0  0  0  0  0  0  0  0
   27.3715   -7.5940   16.4228 C   0  0  0  0  0  0  0  0  0  0  0  0
   28.0376   -8.0967   14.1744 C   0  0  0  0  0  0  0  0  0  0  0  0
   32.1695   -2.0460   23.1080 O   0  0  0  0  0  0  0  0  0  0  0  0
   32.9392   -1.4795   24.1748 C   0  0  0  0  0  0  0  0  0  0  0  0
   33.3644   -2.4697   25.1171 O   0  0  0  0  0  0  0  0  0  0  0  0
   32.1454   -0.3410   24.8591 C   0  0  0  0  0  0  0  0  0  0  0  0
   32.3008   -3.0375   25.8877 C   0  0  0  0  0  0  0  0  0  0  0  0
   30.9468   -0.9611   25.6042 C   0  0  0  0  0  0  0  0  0  0  0  0
   31.4674   -1.9779   26.6376 C   0  0  0  0  0  0  0  0  0  0  0  0
   32.9373   -4.0328   26.8545 C   0  0  0  0  0  0  0  0  0  0  0  0
   33.0695    0.3588   25.7218 O   0  0  0  0  0  0  0  0  0  0  0  0
   32.9071    1.7698   25.7349 C   0  0  0  0  0  0  0  0  0  0  0  0
   30.1645    0.0766   26.2263 O   0  0  0  0  0  0  0  0  0  0  0  0
   28.7646   -0.1172   26.0627 C   0  0  0  0  0  0  0  0  0  0  0  0
   30.3669   -2.6420   27.2850 O   0  0  0  0  0  0  0  0  0  0  0  0
   30.2337   -2.2585   28.6491 C   0  0  0  0  0  0  0  0  0  0  0  0
  1  2  2  0  0  0
  2  3  1  0  0  0
  2  4  1  0  0  0
  3  5  2  0  0  0
  3  6  1  0  0  0
  4  7  1  0  0  0
  4  8  1  0  0  0
  5  9  1  0  0  0
  6 10  1  0  0  0
  6 11  1  0  0  0
  7 29  1  0  0  0
  7 12  1  0  0  0
  9 13  1  0  0  0
  9 10  1  0  0  0
 10 14  1  0  0  0
 11 15  1  0  0  0
 29 30  1  0  0  0
 12 16  1  0  0  0
 13 17  1  0  0  0
 13 18  1  0  0  0
 14 19  2  0  0  0
 15 20  2  0  0  0
 15 21  1  0  0  0
 30 31  1  0  0  0
 30 32  1  0  0  0
 16 22  1  0  0  0
 17 23  1  0  0  0
 17 19  1  0  0  0
 18 24  1  0  0  0
 19 25  1  0  0  0
 21 26  1  0  0  0
 31 33  1  0  0  0
 32 34  1  0  0  0
 22 26  1  0  0  0
 23 24  1  0  0  0
 24 40  1  0  0  0
 26 27  1  0  0  0
 33 35  1  0  0  0
 33 36  1  0  0  0
 34 35  1  0  0  0
 40 41  1  0  0  0
 27 28  1  0  0  0
 35 37  1  0  0  0
 41 42  1  0  0  0
 41 43  1  0  0  0
 37 38  1  0  0  0
 37 39  1  0  0  0
 42 44  1  0  0  0
 43 48  1  0  0  0
 43 45  1  0  0  0
 44 46  1  0  0  0
 44 47  1  0  0  0
 48 49  1  0  0  0
 45 50  1  0  0  0
 45 46  1  0  0  0
 46 52  1  0  0  0
 50 51  1  0  0  0
 52 53  1  0  0  0
M  END
> <minimizedAffinity>
-3.70231

$$$$
