ZINC000013520815
Actelion Java MolfileCreator 2.0

  0  0  0  0  0  0              0 V3000
M  V30 BEGIN CTAB
M  V30 COUNTS 20 23 0 0 0
M  V30 BEGIN ATOM
M  V30 1 O 24.8443 -1.1163 26.5465 0
M  V30 2 C 26.1161 -0.9904 27.0208 0
M  V30 3 C 26.6622 0.2521 27.3166 0
M  V30 4 C 26.8557 -2.146 27.2068 0
M  V30 5 C 27.9769 0.349 27.8096 0
M  V30 6 C 28.1641 -2.0609 27.6872 0
M  V30 7 C 28.7565 -0.8181 27.9755 0
M  V30 8 C 28.521 1.7289 28.0935 0
M  V30 9 C 30.1714 -0.7313 28.5443 0 CFG=2
M  V30 10 C 29.82 1.7331 28.8935 0
M  V30 11 C 30.7814 0.6864 28.3277 0 CFG=1
M  V30 12 C 31.1437 -1.8409 28.0618 0
M  V30 13 C 32.1578 0.7334 28.991 0 CFG=1
M  V30 14 C 32.5738 -1.6919 28.6162 0
M  V30 15 C 33.1364 -0.2862 28.3742 0 CFG=2
M  V30 16 C 32.9488 2.0381 28.9786 0
M  V30 17 C 34.3995 0.0568 29.1888 0 CFG=2
M  V30 18 C 33.4047 -0.0955 26.8597 0
M  V30 19 C 34.3996 1.5966 29.2457 0
M  V30 20 O 35.5984 -0.4265 28.6151 0
M  V30 END ATOM
M  V30 BEGIN BOND
M  V30 1 1 1 2
M  V30 2 2 2 3
M  V30 3 1 2 4
M  V30 4 1 3 5
M  V30 5 2 4 6
M  V30 6 2 5 7
M  V30 7 1 5 8
M  V30 8 1 7 9
M  V30 9 1 8 10
M  V30 10 1 9 11
M  V30 11 1 9 12
M  V30 12 1 11 13
M  V30 13 1 12 14
M  V30 14 1 13 15
M  V30 15 1 13 16
M  V30 16 1 15 17
M  V30 17 1 15 18
M  V30 18 1 16 19
M  V30 19 1 17 20
M  V30 20 1 6 7
M  V30 21 1 10 11
M  V30 22 1 14 15
M  V30 23 1 17 19
M  V30 END BOND
M  V30 BEGIN COLLECTION
M  V30 MDLV30/STEABS ATOMS=(5 9 11 13 15 17)
M  V30 END COLLECTION
M  V30 END CTAB
M  END
>  <Molecule Name>
ZINC000013520815

>  <minimizedAffinity>
-10.11225

$$$$
ZINC000003807917
Actelion Java MolfileCreator 2.0

  0  0  0  0  0  0              0 V3000
M  V30 BEGIN CTAB
M  V30 COUNTS 21 24 0 0 0
M  V30 BEGIN ATOM
M  V30 1 O 35.313 0.0943 28.6665 0
M  V30 2 C 34.1757 0.5359 28.5672 0
M  V30 3 C 33.0151 -0.2007 27.9227 0 CFG=2
M  V30 4 C 33.7567 1.9152 29.0489 0
M  V30 5 C 31.8641 0.5065 28.6624 0 CFG=1
M  V30 6 C 32.9039 -1.6921 28.2209 0
M  V30 7 C 33.1069 0.0692 26.4097 0
M  V30 8 C 32.2693 1.9767 28.67 0
M  V30 9 C 30.4925 0.1026 28.1166 0 CFG=1
M  V30 10 C 31.5462 -2.2421 27.7492 0
M  V30 11 C 30.3183 -1.4391 28.2667 0 CFG=2
M  V30 12 C 29.3674 0.8374 28.8599 0
M  V30 13 C 28.9337 -1.925 27.6779 0 CFG=2
M  V30 14 C 28.0171 0.2277 28.6528 0
M  V30 15 C 27.7982 -0.9871 28.1181 0
M  V30 16 C 28.6499 -3.3593 28.2155 0
M  V30 17 C 28.958 -1.9525 26.1307 0
M  V30 18 C 26.3833 -1.4919 27.9306 0
M  V30 19 C 27.2307 -3.8622 27.9542 0
M  V30 20 C 26.1897 -2.8949 28.5079 0 CFG=2
M  V30 21 O 24.8943 -3.3876 28.1718 0
M  V30 END ATOM
M  V30 BEGIN BOND
M  V30 1 2 1 2
M  V30 2 1 2 3
M  V30 3 1 2 4
M  V30 4 1 3 5
M  V30 5 1 3 6
M  V30 6 1 3 7
M  V30 7 1 4 8
M  V30 8 1 5 9
M  V30 9 1 6 10
M  V30 10 1 9 11
M  V30 11 1 9 12
M  V30 12 1 11 13
M  V30 13 1 12 14
M  V30 14 1 13 15
M  V30 15 1 13 16
M  V30 16 1 13 17
M  V30 17 1 15 18
M  V30 18 1 16 19
M  V30 19 1 18 20
M  V30 20 1 20 21
M  V30 21 1 5 8
M  V30 22 1 10 11
M  V30 23 2 14 15
M  V30 24 1 19 20
M  V30 END BOND
M  V30 BEGIN COLLECTION
M  V30 MDLV30/STEABS ATOMS=(6 3 5 9 11 13 20)
M  V30 END COLLECTION
M  V30 END CTAB
M  END
>  <Molecule Name>
ZINC000003807917

>  <minimizedAffinity>
-9.95944

$$$$
ZINC000000527386
Actelion Java MolfileCreator 2.0

  0  0  0  0  0  0              0 V3000
M  V30 BEGIN CTAB
M  V30 COUNTS 24 27 0 0 0
M  V30 BEGIN ATOM
M  V30 1 F 33.7138 -2.3251 24.8719 0
M  V30 2 C 32.5269 -2.1086 25.4539 0
M  V30 3 C 32.2317 -2.7316 26.6593 0
M  V30 4 C 31.6074 -1.2665 24.8426 0
M  V30 5 C 30.9951 -2.5067 27.2671 0
M  V30 6 C 30.3698 -1.0406 25.4479 0
M  V30 7 C 30.0497 -1.6543 26.6709 0
M  V30 8 C 28.7093 -1.4233 27.3542 0 CFG=1
M  V30 9 C 28.061 -0.0567 27.0179 0 CFG=1
M  V30 10 C 27.7409 -2.5733 27.0267 0
M  V30 11 C 26.6721 0.0421 27.6785 0
M  V30 12 C 28.9495 1.118 27.4678 0
M  V30 13 C 26.3885 -2.3586 27.6972 0
M  V30 14 N 25.7984 -1.0778 27.3169 0
M  V30 15 O 29.3485 0.9023 28.823 0
M  V30 16 C 30.6806 1.0245 29.1115 0
M  V30 17 C 31.461 1.4962 28.0496 0
M  V30 18 C 31.2855 0.7166 30.3448 0
M  V30 19 C 32.8156 1.6483 28.2536 0
M  V30 20 C 32.6651 0.8806 30.5241 0
M  V30 21 O 33.7147 2.0936 27.3356 0
M  V30 22 C 33.4019 1.349 29.4588 0
M  V30 23 C 34.9349 2.0389 28.1031 0
M  V30 24 O 34.7434 1.5672 29.4533 0
M  V30 END ATOM
M  V30 BEGIN BOND
M  V30 1 1 1 2
M  V30 2 2 2 3
M  V30 3 1 2 4
M  V30 4 1 3 5
M  V30 5 2 4 6
M  V30 6 2 5 7
M  V30 7 1 7 8
M  V30 8 1 8 9
M  V30 9 1 8 10
M  V30 10 1 9 11
M  V30 11 1 9 12
M  V30 12 1 10 13
M  V30 13 1 11 14
M  V30 14 1 12 15
M  V30 15 1 15 16
M  V30 16 2 16 17
M  V30 17 1 16 18
M  V30 18 1 17 19
M  V30 19 2 18 20
M  V30 20 1 19 21
M  V30 21 2 19 22
M  V30 22 1 21 23
M  V30 23 1 22 24
M  V30 24 1 6 7
M  V30 25 1 13 14
M  V30 26 1 20 22
M  V30 27 1 23 24
M  V30 END BOND
M  V30 BEGIN COLLECTION
M  V30 MDLV30/STEABS ATOMS=(2 8 9)
M  V30 END COLLECTION
M  V30 END CTAB
M  END
>  <Molecule Name>
ZINC000000527386

>  <minimizedAffinity>
-9.66877

$$$$
ZINC000096014710
Actelion Java MolfileCreator 2.0

  0  0  0  0  0  0              0 V3000
M  V30 BEGIN CTAB
M  V30 COUNTS 22 22 0 0 0
M  V30 BEGIN ATOM
M  V30 1 O 27.332 -3.9907 28.4395 0
M  V30 2 C 26.3763 -3.2615 28.2712 0
M  V30 3 O 25.1232 -3.7505 28.2306 0
M  V30 4 C 26.3358 -1.7987 28.0843 0
M  V30 5 C 27.235 -1.0102 27.4592 0
M  V30 6 C 28.4715 -1.4937 26.8498 0
M  V30 7 C 26.9656 0.474 27.399 0
M  V30 8 C 29.6535 -1.6796 27.4647 0
M  V30 9 C 30.8174 -2.1703 26.7551 0
M  V30 10 C 31.7565 -1.4556 26.1056 0
M  V30 11 C 31.8165 -0.0119 25.9677 0
M  V30 12 C 32.8574 -2.1649 25.3519 0
M  V30 13 C 32.0394 0.9481 26.8791 0
M  V30 14 C 32.2522 0.8784 28.3216 0
M  V30 15 C 31.2411 1.2473 29.1513 0
M  V30 16 C 33.6788 0.5943 28.8498 0
M  V30 17 C 31.3916 1.3267 30.6561 0
M  V30 18 C 29.8626 1.6714 28.6927 0
M  V30 19 C 33.8576 1.2243 30.2616 0
M  V30 20 C 34.7749 1.2218 27.9569 0
M  V30 21 C 33.9457 -0.9215 28.9586 0
M  V30 22 C 32.7257 0.8374 31.2003 0
M  V30 END ATOM
M  V30 BEGIN BOND
M  V30 1 2 1 2
M  V30 2 1 2 3
M  V30 3 1 2 4
M  V30 4 2 4 5
M  V30 5 1 5 6
M  V30 6 1 5 7
M  V30 7 2 6 8
M  V30 8 1 8 9
M  V30 9 2 9 10
M  V30 10 1 10 11
M  V30 11 1 10 12
M  V30 12 2 11 13
M  V30 13 1 13 14
M  V30 14 2 14 15
M  V30 15 1 14 16
M  V30 16 1 15 17
M  V30 17 1 15 18
M  V30 18 1 16 19
M  V30 19 1 16 20
M  V30 20 1 16 21
M  V30 21 1 17 22
M  V30 22 1 19 22
M  V30 END BOND
M  V30 END CTAB
M  END
>  <Molecule Name>
ZINC000096014710

>  <minimizedAffinity>
-9.51501

$$$$
ZINC000004095858
Actelion Java MolfileCreator 2.0

  0  0  0  0  0  0              0 V3000
M  V30 BEGIN CTAB
M  V30 COUNTS 31 32 0 0 0
M  V30 BEGIN ATOM
M  V30 1 O 29.9158 0.3738 28.1063 0
M  V30 2 C 28.8842 -0.53 28.0435 0
M  V30 3 C 31.1648 -0.0472 28.6715 0 CFG=1
M  V30 4 C 29.0458 -1.9004 28.3076 0
M  V30 5 C 27.6341 1.0E-4 27.6584 0
M  V30 6 C 31.5067 -1.4826 28.2617 0
M  V30 7 C 32.2498 0.9505 28.1783 0
M  V30 8 C 31.0668 0.1124 30.203 0
M  V30 9 C 27.9209 -2.7506 28.2548 0
M  V30 10 C 30.4026 -2.4414 28.6758 0
M  V30 11 C 26.5324 -0.8673 27.4906 0
M  V30 12 C 27.5156 1.4772 27.3677 0
M  V30 13 C 33.0938 0.564 26.9507 0
M  V30 14 C 26.6873 -2.2208 27.8399 0
M  V30 15 C 28.0419 -4.2197 28.5754 0
M  V30 16 C 25.218 -0.3463 26.969 0
M  V30 17 C 32.3881 0.7388 25.6024 0
M  V30 18 O 25.626 -3.0877 27.7824 0
M  V30 19 C 32.0603 -0.6014 24.911 0 CFG=1
M  V30 20 C 32.8245 -1.777 25.56 0
M  V30 21 C 30.5538 -0.8737 24.8688 0
M  V30 22 C 32.6777 -3.1266 24.8464 0
M  V30 23 C 33.8961 -3.4088 23.9577 0
M  V30 24 C 33.6154 -3.4323 22.4387 0 CFG=1
M  V30 25 C 32.3545 -2.6205 22.0846 0
M  V30 26 C 34.8369 -2.9781 21.6356 0
M  V30 27 C 31.4113 -3.3479 21.1197 0
M  V30 28 C 31.9464 -3.2881 19.6846 0
M  V30 29 C 30.8441 -3.1228 18.6228 0
M  V30 30 C 29.4546 -2.9681 19.2423 0
M  V30 31 C 31.1542 -1.911 17.74 0
M  V30 END ATOM
M  V30 BEGIN BOND
M  V30 1 1 1 2
M  V30 2 1 1 3
M  V30 3 2 2 4
M  V30 4 1 2 5
M  V30 5 1 3 6
M  V30 6 1 3 7
M  V30 7 1 3 8
M  V30 8 1 4 9
M  V30 9 1 4 10
M  V30 10 2 5 11
M  V30 11 1 5 12
M  V30 12 1 7 13
M  V30 13 2 9 14
M  V30 14 1 9 15
M  V30 15 1 11 16
M  V30 16 1 13 17
M  V30 17 1 14 18
M  V30 18 1 17 19
M  V30 19 1 19 20
M  V30 20 1 19 21
M  V30 21 1 20 22
M  V30 22 1 22 23
M  V30 23 1 23 24
M  V30 24 1 24 25
M  V30 25 1 24 26
M  V30 26 1 25 27
M  V30 27 1 27 28
M  V30 28 1 28 29
M  V30 29 1 29 30
M  V30 30 1 29 31
M  V30 31 1 6 10
M  V30 32 1 11 14
M  V30 END BOND
M  V30 BEGIN COLLECTION
M  V30 MDLV30/STEABS ATOMS=(3 3 19 24)
M  V30 END COLLECTION
M  V30 END CTAB
M  END
>  <Molecule Name>
ZINC000004095858

>  <minimizedAffinity>
-9.24018

$$$$
ZINC000003812983
Actelion Java MolfileCreator 2.0

  0  0  0  0  0  0              0 V3000
M  V30 BEGIN CTAB
M  V30 COUNTS 21 25 0 0 0
M  V30 BEGIN ATOM
M  V30 1 O 27.7088 1.007 26.5907 0
M  V30 2 C 27.5027 -0.2993 26.958 0
M  V30 3 C 29.1446 1.2183 26.8345 0 CFG=2
M  V30 4 C 26.2955 -0.8963 27.2485 0
M  V30 5 C 28.6844 -0.9933 27.1069 0
M  V30 6 C 29.8502 -0.1471 26.6883 0 CFG=2
M  V30 7 C 29.3572 1.9249 28.2085 0 CFG=1
M  V30 8 O 25.1382 -0.197 27.0928 0
M  V30 9 C 26.3007 -2.2056 27.7394 0
M  V30 10 C 28.7362 -2.2595 27.6663 0
M  V30 11 C 31.0339 -0.4539 27.6127 0 CFG=1
M  V30 12 C 30.2181 -0.4785 25.2202 0
M  V30 13 O 28.1351 2.4089 28.765 0
M  V30 14 C 30.0564 1.1272 29.2715 0
M  V30 15 C 27.5194 -2.8773 27.9686 0
M  V30 16 C 30.0782 -2.8311 28.0432 0
M  V30 17 C 30.8236 0.0563 29.0174 0
M  V30 18 C 31.2821 -1.9996 27.4938 0 CFG=1
M  V30 19 C 31.474 -1.3577 25.1033 0
M  V30 20 N 31.5004 -2.438 26.0879 0
M  V30 21 C 32.7018 -3.2566 25.9504 0
M  V30 END ATOM
M  V30 BEGIN BOND
M  V30 1 1 1 2
M  V30 2 1 1 3
M  V30 3 2 2 4
M  V30 4 1 2 5
M  V30 5 1 3 6
M  V30 6 1 3 7
M  V30 7 1 4 8
M  V30 8 1 4 9
M  V30 9 2 5 10
M  V30 10 1 6 11
M  V30 11 1 6 12
M  V30 12 1 7 13
M  V30 13 1 7 14
M  V30 14 2 9 15
M  V30 15 1 10 16
M  V30 16 1 11 17
M  V30 17 1 11 18
M  V30 18 1 12 19
M  V30 19 1 18 20
M  V30 20 1 20 21
M  V30 21 1 5 6
M  V30 22 1 10 15
M  V30 23 2 14 17
M  V30 24 1 16 18
M  V30 25 1 19 20
M  V30 END BOND
M  V30 BEGIN COLLECTION
M  V30 MDLV30/STEABS ATOMS=(5 3 6 7 11 18)
M  V30 END COLLECTION
M  V30 END CTAB
M  END
>  <Molecule Name>
ZINC000003812983

>  <minimizedAffinity>
-9.18554

$$$$
ZINC000000389747
Actelion Java MolfileCreator 2.0

  0  0  0  0  0  0              0 V3000
M  V30 BEGIN CTAB
M  V30 COUNTS 24 28 0 0 0
M  V30 BEGIN ATOM
M  V30 1 O 34.8267 -0.6393 28.6713 0
M  V30 2 C 33.6355 -0.3361 28.7772 0
M  V30 3 C 32.5071 -1.3841 28.7221 0 CFG=2
M  V30 4 C 33.2513 1.0956 29.0721 0
M  V30 5 O 32.8947 -2.4614 27.81 0
M  V30 6 C 31.1665 -0.8364 28.2133 0 CFG=2
M  V30 7 C 32.0861 1.5412 28.1956 0
M  V30 8 C 32.3575 -2.071 26.6055 0
M  V30 9 C 31.4015 -1.0882 26.7651 0
M  V30 10 C 30.864 0.649 28.4371 0 CFG=2
M  V30 11 C 29.9662 -1.6934 28.678 0
M  V30 12 C 32.6862 -2.513 25.3454 0
M  V30 13 C 30.7964 -0.4292 25.7116 0
M  V30 14 O 30.4934 0.8567 29.8169 0
M  V30 15 C 29.6243 0.9909 27.5356 0 CFG=1
M  V30 16 C 28.6399 -1.2189 28.0591 0
M  V30 17 O 33.6062 -3.5011 25.1879 0
M  V30 18 C 32.0645 -1.9066 24.2462 0
M  V30 19 C 31.1358 -0.8568 24.4277 0
M  V30 20 C 29.8995 0.7445 26.0098 0
M  V30 21 N 28.468 0.2445 28.133 0
M  V30 22 C 27.1508 0.6302 27.6065 0
M  V30 23 C 26.1934 -0.5263 27.549 0
M  V30 24 C 25.4016 -0.8045 26.5038 0
M  V30 END ATOM
M  V30 BEGIN BOND
M  V30 1 2 1 2
M  V30 2 1 2 3
M  V30 3 1 2 4
M  V30 4 1 3 5
M  V30 5 1 3 6
M  V30 6 1 4 7
M  V30 7 1 5 8
M  V30 8 1 6 9
M  V30 9 1 6 10
M  V30 10 1 6 11
M  V30 11 1 8 12
M  V30 12 1 9 13
M  V30 13 1 10 14
M  V30 14 1 10 15
M  V30 15 1 11 16
M  V30 16 1 12 17
M  V30 17 2 12 18
M  V30 18 2 13 19
M  V30 19 1 13 20
M  V30 20 1 15 21
M  V30 21 1 21 22
M  V30 22 1 22 23
M  V30 23 2 23 24
M  V30 24 1 7 10
M  V30 25 2 8 9
M  V30 26 1 15 20
M  V30 27 1 16 21
M  V30 28 1 18 19
M  V30 END BOND
M  V30 BEGIN COLLECTION
M  V30 MDLV30/STEABS ATOMS=(4 3 6 10 15)
M  V30 END COLLECTION
M  V30 END CTAB
M  END
>  <Molecule Name>
ZINC000000389747

>  <minimizedAffinity>
-9.11626

$$$$
ZINC000001530788
Actelion Java MolfileCreator 2.0

  0  0  0  0  0  0              0 V3000
M  V30 BEGIN CTAB
M  V30 COUNTS 34 37 0 0 0
M  V30 BEGIN ATOM
M  V30 1 O 30.1652 -0.7834 24.754 0
M  V30 2 C 29.8704 -0.7575 25.941 0
M  V30 3 C 30.8552 -0.8609 27.038 0
M  V30 4 C 28.4601 -0.5992 26.3298 0
M  V30 5 C 30.3825 -0.7676 28.3492 0
M  V30 6 C 32.2264 -1.04 26.8182 0
M  V30 7 C 28.1429 -0.5258 27.6278 0
M  V30 8 O 29.0577 -0.591 28.6623 0
M  V30 9 C 31.263 -0.8578 29.4305 0
M  V30 10 O 32.7434 -1.1978 25.5601 0
M  V30 11 C 33.1048 -1.1545 27.9013 0
M  V30 12 C 26.7094 -0.359 27.9646 0
M  V30 13 C 32.6245 -1.0541 29.2063 0
M  V30 14 C 32.9575 -2.5926 25.2706 0
M  V30 15 O 26.0201 -1.1292 28.6093 0
M  V30 16 O 26.203 0.7831 27.4683 0
M  V30 17 C 33.387 -2.7292 23.8066 0
M  V30 18 O 34.0032 -4.0191 23.6296 0
M  V30 19 C 32.1995 -2.5743 22.8465 0
M  V30 20 O 32.2232 -3.6769 21.9196 0
M  V30 21 C 31.7688 -3.285 20.6903 0
M  V30 22 C 32.6234 -3.0321 19.6093 0
M  V30 23 C 30.3814 -3.2327 20.5215 0
M  V30 24 C 34.0981 -3.0923 19.7075 0
M  V30 25 C 32.0689 -2.7036 18.3703 0
M  V30 26 C 29.8382 -2.8947 19.2833 0
M  V30 27 O 34.7135 -3.3063 20.7438 0
M  V30 28 C 34.853 -2.8539 18.4665 0
M  V30 29 O 32.82 -2.4455 17.2511 0
M  V30 30 C 30.6825 -2.6285 18.2072 0
M  V30 31 C 34.1974 -2.5506 17.3389 0
M  V30 32 C 34.9444 -2.2972 16.0819 0
M  V30 33 O 35.6547 -1.3298 15.8674 0
M  V30 34 O 34.7826 -3.2482 15.1441 0
M  V30 END ATOM
M  V30 BEGIN BOND
M  V30 1 2 1 2
M  V30 2 1 2 3
M  V30 3 1 2 4
M  V30 4 2 3 5
M  V30 5 1 3 6
M  V30 6 2 4 7
M  V30 7 1 5 8
M  V30 8 1 5 9
M  V30 9 1 6 10
M  V30 10 2 6 11
M  V30 11 1 7 12
M  V30 12 2 9 13
M  V30 13 1 10 14
M  V30 14 2 12 15
M  V30 15 1 12 16
M  V30 16 1 14 17
M  V30 17 1 17 18
M  V30 18 1 17 19
M  V30 19 1 19 20
M  V30 20 1 20 21
M  V30 21 2 21 22
M  V30 22 1 21 23
M  V30 23 1 22 24
M  V30 24 1 22 25
M  V30 25 2 23 26
M  V30 26 2 24 27
M  V30 27 1 24 28
M  V30 28 1 25 29
M  V30 29 2 25 30
M  V30 30 2 28 31
M  V30 31 1 31 32
M  V30 32 2 32 33
M  V30 33 1 32 34
M  V30 34 1 7 8
M  V30 35 1 11 13
M  V30 36 1 26 30
M  V30 37 1 29 31
M  V30 END BOND
M  V30 END CTAB
M  END
>  <Molecule Name>
ZINC000001530788

>  <minimizedAffinity>
-9.04898

$$$$
ZINC000012661824
Actelion Java MolfileCreator 2.0

  0  0  0  0  0  0              0 V3000
M  V30 BEGIN CTAB
M  V30 COUNTS 22 22 0 0 0
M  V30 BEGIN ATOM
M  V30 1 O 25.4077 -0.5438 28.4527 0
M  V30 2 C 25.7084 -0.8335 27.3136 0
M  V30 3 O 24.807 -0.7778 26.3166 0
M  V30 4 C 27.0038 -1.287 26.7757 0
M  V30 5 C 28.0963 -0.5328 26.5338 0
M  V30 6 C 29.2943 -1.206 26.0172 0
M  V30 7 C 28.1786 0.9582 26.7461 0
M  V30 8 C 30.12 -0.7496 25.0592 0
M  V30 9 C 31.2866 -1.4911 24.6156 0
M  V30 10 C 32.4202 -1.7593 25.3 0
M  V30 11 C 32.6711 -1.321 26.6714 0
M  V30 12 C 33.5048 -2.5616 24.6172 0
M  V30 13 C 32.3979 -0.1077 27.1834 0
M  V30 14 C 32.6499 0.2513 28.577 0
M  V30 15 C 33.7875 0.8805 28.9624 0
M  V30 16 C 31.5306 -0.1299 29.5701 0
M  V30 17 C 34.0628 1.2523 30.4044 0
M  V30 18 C 34.903 1.3008 28.0332 0
M  V30 19 C 32.0455 -0.0869 31.0333 0
M  V30 20 C 31.0008 -1.564 29.3337 0
M  V30 21 C 30.3495 0.8539 29.4122 0
M  V30 22 C 32.8518 1.1678 31.3245 0
M  V30 END ATOM
M  V30 BEGIN BOND
M  V30 1 2 1 2
M  V30 2 1 2 3
M  V30 3 1 2 4
M  V30 4 2 4 5
M  V30 5 1 5 6
M  V30 6 1 5 7
M  V30 7 2 6 8
M  V30 8 1 8 9
M  V30 9 2 9 10
M  V30 10 1 10 11
M  V30 11 1 10 12
M  V30 12 2 11 13
M  V30 13 1 13 14
M  V30 14 2 14 15
M  V30 15 1 14 16
M  V30 16 1 15 17
M  V30 17 1 15 18
M  V30 18 1 16 19
M  V30 19 1 16 20
M  V30 20 1 16 21
M  V30 21 1 17 22
M  V30 22 1 19 22
M  V30 END BOND
M  V30 END CTAB
M  END
>  <Molecule Name>
ZINC000012661824

>  <minimizedAffinity>
-9.04644

$$$$
ZINC000033943508
Actelion Java MolfileCreator 2.0

  0  0  0  0  0  0              0 V3000
M  V30 BEGIN CTAB
M  V30 COUNTS 22 22 0 0 0
M  V30 BEGIN ATOM
M  V30 1 O 27.3479 -3.8113 28.2712 0
M  V30 2 C 26.4364 -3.0098 28.2517 0
M  V30 3 O 25.1526 -3.4116 28.227 0
M  V30 4 C 26.4865 -1.5351 28.2503 0
M  V30 5 C 27.2185 -0.7232 27.4588 0
M  V30 6 C 28.1312 -1.1918 26.4174 0
M  V30 7 C 27.0926 0.7711 27.6554 0
M  V30 8 C 29.099 -0.4713 25.8226 0
M  V30 9 C 29.9606 -1.0248 24.7934 0
M  V30 10 C 31.3087 -1.1109 24.7833 0
M  V30 11 C 32.1677 -0.6347 25.8661 0
M  V30 12 C 31.984 -1.7349 23.5829 0
M  V30 13 C 31.8263 0.24 26.829 0
M  V30 14 C 32.7496 0.6946 27.8664 0
M  V30 15 C 33.6546 1.6792 27.642 0
M  V30 16 C 32.6244 -0.0284 29.2251 0
M  V30 17 C 34.6131 2.1628 28.71 0
M  V30 18 C 33.84 2.4021 26.3273 0
M  V30 19 C 33.3335 0.7724 30.35 0
M  V30 20 C 31.1509 -0.1943 29.6674 0
M  V30 21 C 33.2582 -1.4334 29.1175 0
M  V30 22 C 34.7117 1.2581 29.9317 0
M  V30 END ATOM
M  V30 BEGIN BOND
M  V30 1 2 1 2
M  V30 2 1 2 3
M  V30 3 1 2 4
M  V30 4 2 4 5
M  V30 5 1 5 6
M  V30 6 1 5 7
M  V30 7 2 6 8
M  V30 8 1 8 9
M  V30 9 2 9 10
M  V30 10 1 10 11
M  V30 11 1 10 12
M  V30 12 2 11 13
M  V30 13 1 13 14
M  V30 14 2 14 15
M  V30 15 1 14 16
M  V30 16 1 15 17
M  V30 17 1 15 18
M  V30 18 1 16 19
M  V30 19 1 16 20
M  V30 20 1 16 21
M  V30 21 1 17 22
M  V30 22 1 19 22
M  V30 END BOND
M  V30 END CTAB
M  END
>  <Molecule Name>
ZINC000033943508

>  <minimizedAffinity>
-8.87458

$$$$
ZINC000003795819
Actelion Java MolfileCreator 2.0

  0  0  0  0  0  0              0 V3000
M  V30 BEGIN CTAB
M  V30 COUNTS 22 26 0 0 0
M  V30 BEGIN ATOM
M  V30 1 O 30.0384 1.9349 26.9421 0
M  V30 2 C 29.8608 0.7885 27.3439 0
M  V30 3 N 30.9045 -0.0731 27.7061 0
M  V30 4 C 28.4678 0.2602 27.4562 0
M  V30 5 C 32.2893 0.4224 27.6082 0 CFG=1
M  V30 6 C 30.5876 -1.3168 28.4067 0
M  V30 7 C 28.2352 -1.1095 27.6723 0
M  V30 8 C 27.3902 1.1442 27.334 0
M  V30 9 C 32.542 1.7423 28.3824 0 CFG=2
M  V30 10 C 33.4025 -0.5946 27.9789 0
M  V30 11 C 29.4203 -2.0435 27.736 0 CFG=2
M  V30 12 C 26.9163 -1.5897 27.7736 0
M  V30 13 C 26.0838 0.6704 27.4385 0
M  V30 14 C 33.8967 2.2866 27.8833 0
M  V30 15 C 32.7293 1.4714 29.8847 0
M  V30 16 N 34.4647 0.0269 28.8128 0 CFG=1
M  V30 17 C 29.0884 -3.3528 28.4587 0
M  V30 18 C 25.849 -0.686 27.6638 0
M  V30 19 C 26.6237 -3.0398 28.0726 0
M  V30 20 C 34.9871 1.2224 28.1098 0
M  V30 21 C 33.8627 0.4552 30.0931 0
M  V30 22 C 27.8232 -3.9634 27.8643 0
M  V30 END ATOM
M  V30 BEGIN BOND
M  V30 1 2 1 2
M  V30 2 1 2 3
M  V30 3 1 2 4
M  V30 4 1 3 5
M  V30 5 1 3 6
M  V30 6 2 4 7
M  V30 7 1 4 8
M  V30 8 1 5 9
M  V30 9 1 5 10
M  V30 10 1 6 11
M  V30 11 1 7 12
M  V30 12 2 8 13
M  V30 13 1 9 14
M  V30 14 1 9 15
M  V30 15 1 10 16
M  V30 16 1 11 17
M  V30 17 2 12 18
M  V30 18 1 12 19
M  V30 19 1 14 20
M  V30 20 1 15 21
M  V30 21 1 17 22
M  V30 22 1 7 11
M  V30 23 1 13 18
M  V30 24 1 16 20
M  V30 25 1 16 21
M  V30 26 1 19 22
M  V30 END BOND
M  V30 BEGIN COLLECTION
M  V30 MDLV30/STEABS ATOMS=(4 5 9 11 16)
M  V30 END COLLECTION
M  V30 END CTAB
M  END
>  <Molecule Name>
ZINC000003795819

>  <minimizedAffinity>
-8.78896

$$$$
ZINC000003833821
Actelion Java MolfileCreator 2.0

  0  0  0  0  0  0              0 V3000
M  V30 BEGIN CTAB
M  V30 COUNTS 26 29 0 0 0
M  V30 BEGIN ATOM
M  V30 1 O 24.988 -3.7316 28.6861 0
M  V30 2 C 25.9663 -3.1684 28.2112 0
M  V30 3 C 26.049 -1.6955 28.1447 0
M  V30 4 C 27.1142 -3.9338 27.6911 0
M  V30 5 C 27.1188 -1.0674 27.6251 0
M  V30 6 C 28.1798 -3.3099 27.172 0
M  V30 7 C 28.3423 -1.7976 27.0492 0 CFG=2
M  V30 8 C 27.1967 0.4371 27.6309 0
M  V30 9 C 29.5997 -1.3153 27.8717 0 CFG=1
M  V30 10 C 28.4163 -1.4934 25.5364 0
M  V30 11 C 28.4209 0.8963 28.414 0
M  V30 12 C 30.9522 -1.9918 27.5017 0 CFG=1
M  V30 13 C 29.722 0.2469 27.906 0 CFG=1
M  V30 14 O 31.233 -1.8499 26.1167 0
M  V30 15 C 32.1501 -1.4644 28.3232 0
M  V30 16 C 30.9026 0.6272 28.8127 0 CFG=1
M  V30 17 C 32.2664 0.0756 28.3321 0 CFG=1
M  V30 18 C 31.1809 2.104 29.0623 0
M  V30 19 C 33.2018 0.6992 29.4207 0 CFG=1
M  V30 20 C 32.6788 0.599 26.93 0
M  V30 21 C 32.618 2.1308 29.6158 0
M  V30 22 O 33.0534 -0.009 30.6571 0
M  V30 23 C 34.6986 0.7243 29.0427 0
M  V30 24 O 35.4056 -0.2887 29.0319 0
M  V30 25 C 35.3027 2.0687 28.6505 0
M  V30 26 O 36.0381 1.9737 27.4368 0
M  V30 END ATOM
M  V30 BEGIN BOND
M  V30 1 2 1 2
M  V30 2 1 2 3
M  V30 3 1 2 4
M  V30 4 2 3 5
M  V30 5 2 4 6
M  V30 6 1 5 7
M  V30 7 1 5 8
M  V30 8 1 7 9
M  V30 9 1 7 10
M  V30 10 1 8 11
M  V30 11 1 9 12
M  V30 12 1 9 13
M  V30 13 1 12 14
M  V30 14 1 12 15
M  V30 15 1 13 16
M  V30 16 1 15 17
M  V30 17 1 16 18
M  V30 18 1 17 19
M  V30 19 1 17 20
M  V30 20 1 18 21
M  V30 21 1 19 22
M  V30 22 1 19 23
M  V30 23 2 23 24
M  V30 24 1 23 25
M  V30 25 1 25 26
M  V30 26 1 6 7
M  V30 27 1 11 13
M  V30 28 1 16 17
M  V30 29 1 19 21
M  V30 END BOND
M  V30 BEGIN COLLECTION
M  V30 MDLV30/STEABS ATOMS=(7 7 9 12 13 16 17 19)
M  V30 END COLLECTION
M  V30 END CTAB
M  END
>  <Molecule Name>
ZINC000003833821

>  <minimizedAffinity>
-8.78797

$$$$
ZINC000003806721
Actelion Java MolfileCreator 2.0

  0  0  0  0  0  0              0 V3000
M  V30 BEGIN CTAB
M  V30 COUNTS 22 26 0 0 0
M  V30 BEGIN ATOM
M  V30 1 O 32.2571 -2.6541 27.5001 0
M  V30 2 C 31.7808 -2.0657 26.3513 0
M  V30 3 C 31.4984 -1.9976 28.576 0 CFG=2
M  V30 4 C 32.3931 -2.0755 25.1103 0
M  V30 5 C 30.6186 -1.3569 26.5781 0
M  V30 6 C 30.1433 -1.5526 27.9874 0 CFG=2
M  V30 7 C 32.3469 -0.8543 29.2126 0 CFG=1
M  V30 8 O 33.5323 -2.8176 24.9958 0
M  V30 9 C 31.8043 -1.2962 24.1045 0
M  V30 10 C 30.0656 -0.5186 25.6275 0
M  V30 11 C 29.5345 -0.2363 28.4854 0 CFG=1
M  V30 12 C 29.0787 -2.6777 28.0138 0
M  V30 13 O 33.7075 -0.8846 28.7834 0
M  V30 14 C 31.8394 0.5452 29.0177 0
M  V30 15 C 33.7899 -3.4067 23.7288 0
M  V30 16 C 30.6627 -0.5062 24.3665 0
M  V30 17 C 28.9615 0.4198 26.0389 0
M  V30 18 C 30.5702 0.8406 28.6982 0
M  V30 19 C 28.3972 0.1237 27.4656 0 CFG=1
M  V30 20 C 27.6448 -2.1402 28.1524 0
M  V30 21 N 27.3977 -0.9691 27.3136 0
M  V30 22 C 26.0289 -0.4834 27.4643 0
M  V30 END ATOM
M  V30 BEGIN BOND
M  V30 1 1 1 2
M  V30 2 1 1 3
M  V30 3 2 2 4
M  V30 4 1 2 5
M  V30 5 1 3 6
M  V30 6 1 3 7
M  V30 7 1 4 8
M  V30 8 1 4 9
M  V30 9 2 5 10
M  V30 10 1 6 11
M  V30 11 1 6 12
M  V30 12 1 7 13
M  V30 13 1 7 14
M  V30 14 1 8 15
M  V30 15 2 9 16
M  V30 16 1 10 17
M  V30 17 1 11 18
M  V30 18 1 11 19
M  V30 19 1 12 20
M  V30 20 1 19 21
M  V30 21 1 21 22
M  V30 22 1 5 6
M  V30 23 1 10 16
M  V30 24 2 14 18
M  V30 25 1 17 19
M  V30 26 1 20 21
M  V30 END BOND
M  V30 BEGIN COLLECTION
M  V30 MDLV30/STEABS ATOMS=(5 3 6 7 11 19)
M  V30 END COLLECTION
M  V30 END CTAB
M  END
>  <Molecule Name>
ZINC000003806721

>  <minimizedAffinity>
-8.78286

$$$$
ZINC000003780893
Actelion Java MolfileCreator 2.0

  0  0  0  0  0  0              0 V3000
M  V30 BEGIN CTAB
M  V30 COUNTS 30 32 0 0 0
M  V30 BEGIN ATOM
M  V30 1 O 30.8245 -3.1471 20.5739 0
M  V30 2 C 31.8551 -3.2763 21.2221 0
M  V30 3 O 31.9318 -2.9161 22.5298 0
M  V30 4 C 33.1123 -3.8654 20.6489 0
M  V30 5 C 33.0765 -3.3505 23.2854 0 CFG=1
M  V30 6 C 34.2953 -3.0268 21.0964 0 CFG=1
M  V30 7 C 34.3659 -2.877 22.6153 0
M  V30 8 C 32.9649 -2.807 24.7176 0
M  V30 9 O 35.5122 -3.5854 20.6068 0
M  V30 10 C 32.1425 -1.5127 24.7773 0
M  V30 11 C 31.6298 -1.0707 26.1798 0 CFG=2
M  V30 12 C 30.3495 -1.8681 26.5841 0 CFG=2
M  V30 13 C 31.4546 0.4611 26.3669 0 CFG=2
M  V30 14 C 29.0326 -1.1399 26.3666 0
M  V30 15 C 30.4085 -2.4486 28.0221 0 CFG=1
M  V30 16 C 30.1341 0.9615 25.845 0
M  V30 17 C 32.6192 1.2778 25.8003 0
M  V30 18 C 29.0289 0.2055 25.8483 0
M  V30 19 C 27.8953 -1.7685 26.7102 0
M  V30 20 O 30.8195 -1.4112 28.9406 0
M  V30 21 C 29.064 -3.0545 28.4953 0
M  V30 22 C 27.9652 -3.1006 27.4145 0 CFG=1
M  V30 23 C 32.155 -1.3129 29.1909 0
M  V30 24 C 26.6211 -3.4727 28.0412 0
M  V30 25 O 32.9843 -2.1471 28.8511 0
M  V30 26 C 32.4856 0.0058 29.9032 0
M  V30 27 C 33.9727 0.321 29.614 0
M  V30 28 C 31.5531 1.1206 29.399 0
M  V30 29 C 32.2398 -0.1841 31.4109 0
M  V30 30 C 34.245 1.6767 28.9754 0
M  V30 END ATOM
M  V30 BEGIN BOND
M  V30 1 2 1 2
M  V30 2 1 2 3
M  V30 3 1 2 4
M  V30 4 1 3 5
M  V30 5 1 4 6
M  V30 6 1 5 7
M  V30 7 1 5 8
M  V30 8 1 6 9
M  V30 9 1 8 10
M  V30 10 1 10 11
M  V30 11 1 11 12
M  V30 12 1 11 13
M  V30 13 1 12 14
M  V30 14 1 12 15
M  V30 15 1 13 16
M  V30 16 1 13 17
M  V30 17 1 14 18
M  V30 18 2 14 19
M  V30 19 1 15 20
M  V30 20 1 15 21
M  V30 21 1 19 22
M  V30 22 1 20 23
M  V30 23 1 22 24
M  V30 24 2 23 25
M  V30 25 1 23 26
M  V30 26 1 26 27
M  V30 27 1 26 28
M  V30 28 1 26 29
M  V30 29 1 27 30
M  V30 30 1 6 7
M  V30 31 2 16 18
M  V30 32 1 21 22
M  V30 END BOND
M  V30 BEGIN COLLECTION
M  V30 MDLV30/STEABS ATOMS=(7 5 6 11 12 13 15 22)
M  V30 END COLLECTION
M  V30 END CTAB
M  END
>  <Molecule Name>
ZINC000003780893

>  <minimizedAffinity>
-8.74017

$$$$
ZINC000003800706
Actelion Java MolfileCreator 2.0

  0  0  0  0  0  0              0 V3000
M  V30 BEGIN CTAB
M  V30 COUNTS 24 26 0 0 0
M  V30 BEGIN ATOM
M  V30 1 F 25.3146 -3.756 28.4984 0
M  V30 2 C 26.4965 -3.1611 28.2909 0
M  V30 3 C 26.5445 -1.7958 28.0516 0
M  V30 4 C 27.6594 -3.9176 28.3261 0
M  V30 5 C 27.7789 -1.1782 27.8372 0
M  V30 6 C 28.8954 -3.2999 28.1121 0
M  V30 7 C 28.9798 -1.9193 27.8481 0
M  V30 8 C 30.3291 -1.2084 27.6372 0 CFG=2
M  V30 9 O 30.0712 0.0888 27.015 0
M  V30 10 C 31.234 -1.8644 26.6228 0
M  V30 11 C 30.995 -0.9602 29.0099 0
M  V30 12 C 30.2286 -0.0192 25.5839 0
M  V30 13 C 31.1557 -1.165 25.4227 0
M  V30 14 C 32.0797 -2.9599 26.7438 0
M  V30 15 C 31.0894 0.5218 29.4124 0
M  V30 16 C 31.8745 -1.555 24.303 0
M  V30 17 C 32.8193 -3.364 25.6276 0
M  V30 18 C 32.5537 0.9826 29.4563 0
M  V30 19 C 32.715 -2.6687 24.4087 0
M  V30 20 N 33.3892 0.3455 28.4246 0
M  V30 21 C 33.4793 -3.099 23.2742 0
M  V30 22 C 34.7316 0.0275 28.9149 0
M  V30 23 C 33.4878 1.2184 27.2509 0
M  V30 24 N 34.0969 -3.4487 22.3557 0
M  V30 END ATOM
M  V30 BEGIN BOND
M  V30 1 1 1 2
M  V30 2 2 2 3
M  V30 3 1 2 4
M  V30 4 1 3 5
M  V30 5 2 4 6
M  V30 6 2 5 7
M  V30 7 1 7 8
M  V30 8 1 8 9
M  V30 9 1 8 10
M  V30 10 1 8 11
M  V30 11 1 9 12
M  V30 12 2 10 13
M  V30 13 1 10 14
M  V30 14 1 11 15
M  V30 15 1 13 16
M  V30 16 2 14 17
M  V30 17 1 15 18
M  V30 18 2 16 19
M  V30 19 1 18 20
M  V30 20 1 19 21
M  V30 21 1 20 22
M  V30 22 1 20 23
M  V30 23 3 21 24
M  V30 24 1 6 7
M  V30 25 1 12 13
M  V30 26 1 17 19
M  V30 END BOND
M  V30 BEGIN COLLECTION
M  V30 MDLV30/STEABS ATOMS=(1 8)
M  V30 END COLLECTION
M  V30 END CTAB
M  END
>  <Molecule Name>
ZINC000003800706

>  <minimizedAffinity>
-8.71726

$$$$
ZINC000003812897
Actelion Java MolfileCreator 2.0

  0  0  0  0  0  0              0 V3000
M  V30 BEGIN CTAB
M  V30 COUNTS 22 25 0 0 0
M  V30 BEGIN ATOM
M  V30 1 O 25.062 -3.7932 27.9769 0
M  V30 2 C 26.244 -3.1205 28.0703 0
M  V30 3 C 26.3134 -1.7442 27.8948 0
M  V30 4 C 27.3853 -3.8514 28.3524 0
M  V30 5 C 27.548 -1.0771 28.0025 0
M  V30 6 C 28.6171 -3.2009 28.4527 0
M  V30 7 C 28.7276 -1.8119 28.2586 0
M  V30 8 C 27.5615 0.4168 27.7822 0
M  V30 9 C 30.0691 -1.0974 28.4146 0 CFG=2
M  V30 10 C 28.8602 1.096 28.2062 0
M  V30 11 C 30.0581 0.2881 27.7018 0 CFG=1
M  V30 12 C 31.3096 -1.9315 27.999 0
M  V30 13 C 31.3909 0.9931 27.9645 0 CFG=1
M  V30 14 C 32.6386 -1.163 28.1379 0
M  V30 15 C 32.5995 0.1982 27.4209 0 CFG=2
M  V30 16 C 31.6027 2.3956 27.3988 0
M  V30 17 C 33.7551 1.1997 27.7232 0 CFG=2
M  V30 18 C 32.5353 -0.065 25.8866 0
M  V30 19 C 33.1346 2.5696 27.3408 0
M  V30 20 O 34.8978 0.9405 26.92 0
M  V30 21 C 34.1874 1.2145 29.1378 0
M  V30 22 C 34.5264 1.2377 30.2904 0
M  V30 END ATOM
M  V30 BEGIN BOND
M  V30 1 1 1 2
M  V30 2 2 2 3
M  V30 3 1 2 4
M  V30 4 1 3 5
M  V30 5 2 4 6
M  V30 6 2 5 7
M  V30 7 1 5 8
M  V30 8 1 7 9
M  V30 9 1 8 10
M  V30 10 1 9 11
M  V30 11 1 9 12
M  V30 12 1 11 13
M  V30 13 1 12 14
M  V30 14 1 13 15
M  V30 15 1 13 16
M  V30 16 1 15 17
M  V30 17 1 15 18
M  V30 18 1 16 19
M  V30 19 1 17 20
M  V30 20 1 17 21
M  V30 21 3 21 22
M  V30 22 1 6 7
M  V30 23 1 10 11
M  V30 24 1 14 15
M  V30 25 1 17 19
M  V30 END BOND
M  V30 BEGIN COLLECTION
M  V30 MDLV30/STEABS ATOMS=(5 9 11 13 15 17)
M  V30 END COLLECTION
M  V30 END CTAB
M  END
>  <Molecule Name>
ZINC000003812897

>  <minimizedAffinity>
-8.49011

$$$$
ZINC000003831417
Actelion Java MolfileCreator 2.0

  0  0  0  0  0  0              0 V3000
M  V30 BEGIN CTAB
M  V30 COUNTS 21 21 0 0 0
M  V30 BEGIN ATOM
M  V30 1 O 33.9051 -6.4258 19.3605 0
M  V30 2 C 34.0052 -5.0288 19.1272 0
M  V30 3 C 33.8734 -4.3273 20.4401 0
M  V30 4 C 32.9105 -3.4761 20.8529 0
M  V30 5 C 33.0064 -2.9225 22.2063 0
M  V30 6 C 31.7375 -3.0542 20.0043 0
M  V30 7 C 32.8203 -3.5881 23.3596 0
M  V30 8 C 32.9382 -2.9478 24.6562 0
M  V30 9 C 32.3394 -1.8105 25.0718 0
M  V30 10 C 32.6075 -1.3488 26.4365 0
M  V30 11 C 31.4088 -0.9714 24.231 0
M  V30 12 C 32.2007 -0.1918 26.9877 0
M  V30 13 C 32.485 0.1835 28.3708 0
M  V30 14 C 33.622 0.8355 28.7194 0
M  V30 15 C 31.3993 -0.2063 29.3978 0
M  V30 16 C 33.9302 1.2252 30.1499 0
M  V30 17 C 34.7038 1.2665 27.7557 0
M  V30 18 C 31.9532 -0.1411 30.846 0
M  V30 19 C 30.8867 -1.6511 29.1889 0
M  V30 20 C 30.1982 0.7567 29.2634 0
M  V30 21 C 32.7461 1.1295 31.1038 0
M  V30 END ATOM
M  V30 BEGIN BOND
M  V30 1 1 1 2
M  V30 2 1 2 3
M  V30 3 2 3 4
M  V30 4 1 4 5
M  V30 5 1 4 6
M  V30 6 2 5 7
M  V30 7 1 7 8
M  V30 8 2 8 9
M  V30 9 1 9 10
M  V30 10 1 9 11
M  V30 11 2 10 12
M  V30 12 1 12 13
M  V30 13 2 13 14
M  V30 14 1 13 15
M  V30 15 1 14 16
M  V30 16 1 14 17
M  V30 17 1 15 18
M  V30 18 1 15 19
M  V30 19 1 15 20
M  V30 20 1 16 21
M  V30 21 1 18 21
M  V30 END BOND
M  V30 END CTAB
M  END
>  <Molecule Name>
ZINC000003831417

>  <minimizedAffinity>
-8.46006

$$$$
ZINC000000009073
Actelion Java MolfileCreator 2.0

  0  0  0  0  0  0              0 V3000
M  V30 BEGIN CTAB
M  V30 COUNTS 20 23 0 0 0
M  V30 BEGIN ATOM
M  V30 1 O 32.1861 -3.7822 21.0146 0
M  V30 2 C 31.9721 -3.1455 19.8186 0
M  V30 3 C 33.0183 -2.5694 19.0792 0
M  V30 4 C 30.6473 -3.0976 19.3656 0
M  V30 5 C 34.4558 -2.5404 19.4836 0
M  V30 6 C 32.6548 -1.9497 17.8494 0
M  V30 7 O 29.6642 -3.7471 20.0612 0
M  V30 8 C 30.3038 -2.4334 18.2018 0
M  V30 9 C 35.4484 -2.3124 18.4936 0
M  V30 10 C 34.8904 -2.6431 20.8153 0
M  V30 11 C 31.3118 -1.8576 17.4384 0
M  V30 12 C 33.7393 -1.3654 16.9605 0
M  V30 13 C 36.8002 -2.1398 18.8482 0
M  V30 14 C 34.9994 -2.2488 17.0364 0 CFG=1
M  V30 15 C 36.2423 -2.5385 21.1575 0
M  V30 16 C 37.195 -2.2839 20.1787 0
M  V30 17 C 37.8017 -1.7678 17.7914 0
M  V30 18 N 35.9999 -1.7935 16.0384 0
M  V30 19 C 37.1002 -1.0331 16.6443 0
M  V30 20 C 36.498 -2.9174 15.2439 0
M  V30 END ATOM
M  V30 BEGIN BOND
M  V30 1 1 1 2
M  V30 2 2 2 3
M  V30 3 1 2 4
M  V30 4 1 3 5
M  V30 5 1 3 6
M  V30 6 1 4 7
M  V30 7 2 4 8
M  V30 8 2 5 9
M  V30 9 1 5 10
M  V30 10 2 6 11
M  V30 11 1 6 12
M  V30 12 1 9 13
M  V30 13 1 9 14
M  V30 14 2 10 15
M  V30 15 2 13 16
M  V30 16 1 13 17
M  V30 17 1 14 18
M  V30 18 1 17 19
M  V30 19 1 18 20
M  V30 20 1 8 11
M  V30 21 1 12 14
M  V30 22 1 15 16
M  V30 23 1 18 19
M  V30 END BOND
M  V30 BEGIN COLLECTION
M  V30 MDLV30/STEABS ATOMS=(1 14)
M  V30 END COLLECTION
M  V30 END CTAB
M  END
>  <Molecule Name>
ZINC000000009073

>  <minimizedAffinity>
-8.29553

$$$$
ZINC000001530775
Actelion Java MolfileCreator 2.0

  0  0  0  0  0  0              0 V3000
M  V30 BEGIN CTAB
M  V30 COUNTS 25 26 0 0 0
M  V30 BEGIN ATOM
M  V30 1 O 31.2479 0.8835 29.7146 0
M  V30 2 C 30.3175 0.1162 29.0705 0
M  V30 3 C 32.4338 0.2283 30.168 0
M  V30 4 C 30.6662 -1.2312 28.9384 0
M  V30 5 C 29.0973 0.5613 28.559 0
M  V30 6 C 33.618 1.1361 29.8406 0
M  V30 7 C 29.8087 -2.1318 28.3025 0
M  V30 8 C 28.2342 -0.3354 27.9184 0
M  V30 9 C 33.4307 1.9613 28.5672 0
M  V30 10 C 28.591 -1.681 27.789 0
M  V30 11 C 33.8049 1.205 27.294 0
M  V30 12 C 27.6714 -2.6349 27.1165 0
M  V30 13 C 32.6939 1.2788 26.248 0
M  V30 14 N 27.7852 -3.9173 27.2554 0
M  V30 15 N 26.674 -2.1785 26.3215 0
M  V30 16 O 31.9062 0.0942 26.3675 0
M  V30 17 C 32.1997 -0.9389 25.522 0
M  V30 18 C 31.741 -0.7664 24.2123 0
M  V30 19 C 32.8959 -2.1019 25.8561 0
M  V30 20 C 31.972 -1.7428 23.2403 0
M  V30 21 C 33.1286 -3.0851 24.8873 0
M  V30 22 C 32.6651 -2.9062 23.5804 0
M  V30 23 C 32.9193 -3.9463 22.5501 0
M  V30 24 N 34.0892 -4.1259 22.0249 0
M  V30 25 N 31.9128 -4.7453 22.1218 0
M  V30 END ATOM
M  V30 BEGIN BOND
M  V30 1 1 1 2
M  V30 2 1 1 3
M  V30 3 2 2 4
M  V30 4 1 2 5
M  V30 5 1 3 6
M  V30 6 1 4 7
M  V30 7 2 5 8
M  V30 8 1 6 9
M  V30 9 2 7 10
M  V30 10 1 9 11
M  V30 11 1 10 12
M  V30 12 1 11 13
M  V30 13 2 12 14
M  V30 14 1 12 15
M  V30 15 1 13 16
M  V30 16 1 16 17
M  V30 17 2 17 18
M  V30 18 1 17 19
M  V30 19 1 18 20
M  V30 20 2 19 21
M  V30 21 2 20 22
M  V30 22 1 22 23
M  V30 23 2 23 24
M  V30 24 1 23 25
M  V30 25 1 8 10
M  V30 26 1 21 22
M  V30 END BOND
M  V30 END CTAB
M  END
>  <Molecule Name>
ZINC000001530775

>  <minimizedAffinity>
-8.29213

$$$$
ZINC000003938684
Actelion Java MolfileCreator 2.0

  0  0  0  0  0  0              0 V3000
M  V30 BEGIN CTAB
M  V30 COUNTS 42 48 0 0 0
M  V30 BEGIN ATOM
M  V30 1 O 30.3348 -2.1591 17.362 0
M  V30 2 C 30.706 -2.5385 18.4597 0
M  V30 3 O 29.8992 -3.1784 19.3678 0
M  V30 4 C 32.0533 -2.3083 19.0773 0 CFG=2
M  V30 5 C 30.6122 -3.3166 20.6068 0
M  V30 6 C 33.3125 -2.4265 18.2191 0 CFG=1
M  V30 7 C 32.0594 -3.3438 20.1856 0 CFG=2
M  V30 8 C 34.5391 -2.359 19.1463 0
M  V30 9 C 33.3444 -3.6331 17.2729 0
M  V30 10 C 33.1218 -3.0043 21.2229 0 CFG=1
M  V30 11 C 34.4491 -2.6682 20.5437 0
M  V30 12 C 35.7842 -2.0198 18.579 0
M  V30 13 C 32.6033 -4.8075 17.51 0
M  V30 14 C 34.151 -3.5704 16.1185 0
M  V30 15 O 32.713 -1.8475 21.9508 0
M  V30 16 C 35.6137 -2.6293 21.3344 0
M  V30 17 C 36.8914 -1.9971 19.3971 0
M  V30 18 C 32.6711 -5.8874 16.6278 0
M  V30 19 C 34.2042 -4.6286 15.2065 0
M  V30 20 C 32.0677 -2.1549 23.1911 0 CFG=2
M  V30 21 C 36.8083 -2.2949 20.7342 0
M  V30 22 O 38.1591 -1.6965 19.0089 0
M  V30 23 O 32.0055 -7.0806 16.7653 0
M  V30 24 C 33.4687 -5.7835 15.4812 0
M  V30 25 O 34.954 -4.6301 14.0603 0
M  V30 26 O 31.8565 -0.9292 23.9071 0
M  V30 27 C 32.976 -3.1315 23.976 0 CFG=2
M  V30 28 O 38.014 -2.2197 21.359 0
M  V30 29 C 38.8613 -1.8139 20.2634 0
M  V30 30 C 30.6101 -7.07 16.4871 0
M  V30 31 O 33.5172 -6.8465 14.6107 0
M  V30 32 C 36.1114 -3.8032 14.0585 0
M  V30 33 C 31.2908 -1.154 25.1948 0 CFG=1
M  V30 34 O 33.0099 -4.4222 23.3476 0
M  V30 35 C 32.4807 -3.3116 25.4143 0 CFG=2
M  V30 36 C 32.2495 -1.955 26.0717 0 CFG=2
M  V30 37 C 31.0029 0.1605 25.912 0
M  V30 38 O 33.4545 -4.0644 26.1547 0
M  V30 39 O 31.7 -2.1371 27.379 0
M  V30 40 O 30.5112 -0.1007 27.2252 0
M  V30 41 C 31.4408 -0.8686 27.9885 0 CFG=1
M  V30 42 C 30.8305 -1.1231 29.3557 0
M  V30 END ATOM
M  V30 BEGIN BOND
M  V30 1 2 1 2
M  V30 2 1 2 3
M  V30 3 1 2 4
M  V30 4 1 3 5
M  V30 5 1 4 6
M  V30 6 1 4 7
M  V30 7 1 6 8
M  V30 8 1 6 9
M  V30 9 1 7 10
M  V30 10 2 8 11
M  V30 11 1 8 12
M  V30 12 2 9 13
M  V30 13 1 9 14
M  V30 14 1 10 15
M  V30 15 1 11 16
M  V30 16 2 12 17
M  V30 17 1 13 18
M  V30 18 2 14 19
M  V30 19 1 15 20
M  V30 20 2 16 21
M  V30 21 1 17 22
M  V30 22 1 18 23
M  V30 23 2 18 24
M  V30 24 1 19 25
M  V30 25 1 20 26
M  V30 26 1 20 27
M  V30 27 1 21 28
M  V30 28 1 22 29
M  V30 29 1 23 30
M  V30 30 1 24 31
M  V30 31 1 25 32
M  V30 32 1 26 33
M  V30 33 1 27 34
M  V30 34 1 27 35
M  V30 35 1 33 36
M  V30 36 1 33 37
M  V30 37 1 35 38
M  V30 38 1 36 39
M  V30 39 1 37 40
M  V30 40 1 39 41
M  V30 41 1 41 42
M  V30 42 1 5 7
M  V30 43 1 10 11
M  V30 44 1 17 21
M  V30 45 1 19 24
M  V30 46 1 28 29
M  V30 47 1 35 36
M  V30 48 1 40 41
M  V30 END BOND
M  V30 BEGIN COLLECTION
M  V30 MDLV30/STEABS ATOMS=(10 4 6 7 10 20 27 33 35 36 41)
M  V30 END COLLECTION
M  V30 END CTAB
M  END
>  <Molecule Name>
ZINC000003938684

>  <minimizedAffinity>
-8.23898

$$$$
ZINC000003812841
Actelion Java MolfileCreator 2.0

  0  0  0  0  0  0              0 V3000
M  V30 BEGIN CTAB
M  V30 COUNTS 29 31 0 0 0
M  V30 BEGIN ATOM
M  V30 1 O 33.1988 -4.0641 26.4257 0
M  V30 2 C 33.0035 -3.3114 25.48 0
M  V30 3 O 32.0072 -2.3879 25.4906 0
M  V30 4 C 33.8529 -3.3174 24.2414 0
M  V30 5 C 31.9927 -1.3951 24.4495 0 CFG=1
M  V30 6 C 32.9503 -3.2444 23.0226 0 CFG=1
M  V30 7 C 31.9768 -2.0678 23.0785 0
M  V30 8 C 30.7614 -0.4997 24.6442 0
M  V30 9 O 33.7316 -3.1682 21.8326 0
M  V30 10 C 29.8606 -1.011 25.779 0
M  V30 11 C 29.3765 0.1046 26.7366 0 CFG=2
M  V30 12 C 29.7231 -0.1954 28.2321 0 CFG=2
M  V30 13 C 27.8576 0.4256 26.5815 0 CFG=2
M  V30 14 C 29.2551 0.9393 29.1426 0
M  V30 15 C 31.2212 -0.5328 28.4649 0 CFG=1
M  V30 16 C 27.3969 1.4136 27.6212 0
M  V30 17 C 26.9365 -0.7986 26.6322 0
M  V30 18 C 28.0465 1.6459 28.7683 0
M  V30 19 C 29.9163 1.2933 30.259 0
M  V30 20 O 32.0503 0.4702 27.8424 0
M  V30 21 C 31.536 -0.6311 29.9628 0
M  V30 22 C 31.1787 0.6389 30.7502 0 CFG=1
M  V30 23 C 33.3548 0.1458 27.6355 0
M  V30 24 C 32.3205 1.6583 30.7606 0
M  V30 25 O 33.859 -0.9428 27.8732 0
M  V30 26 C 34.1044 1.3368 27.067 0 CFG=2
M  V30 27 C 34.7495 2.1656 28.1851 0
M  V30 28 C 33.1273 2.1822 26.2542 0
M  V30 29 C 35.0503 1.3406 29.4291 0
M  V30 END ATOM
M  V30 BEGIN BOND
M  V30 1 2 1 2
M  V30 2 1 2 3
M  V30 3 1 2 4
M  V30 4 1 3 5
M  V30 5 1 4 6
M  V30 6 1 5 7
M  V30 7 1 5 8
M  V30 8 1 6 9
M  V30 9 1 8 10
M  V30 10 1 10 11
M  V30 11 1 11 12
M  V30 12 1 11 13
M  V30 13 1 12 14
M  V30 14 1 12 15
M  V30 15 1 13 16
M  V30 16 1 13 17
M  V30 17 1 14 18
M  V30 18 2 14 19
M  V30 19 1 15 20
M  V30 20 1 15 21
M  V30 21 1 19 22
M  V30 22 1 20 23
M  V30 23 1 22 24
M  V30 24 2 23 25
M  V30 25 1 23 26
M  V30 26 1 26 27
M  V30 27 1 26 28
M  V30 28 1 27 29
M  V30 29 1 6 7
M  V30 30 2 16 18
M  V30 31 1 21 22
M  V30 END BOND
M  V30 BEGIN COLLECTION
M  V30 MDLV30/STEABS ATOMS=(8 5 6 11 12 13 15 22 26)
M  V30 END COLLECTION
M  V30 END CTAB
M  END
>  <Molecule Name>
ZINC000003812841

>  <minimizedAffinity>
-8.20206

$$$$
ZINC000003792789
Actelion Java MolfileCreator 2.0

  0  0  0  0  0  0              0 V3000
M  V30 BEGIN CTAB
M  V30 COUNTS 22 22 0 0 0
M  V30 BEGIN ATOM
M  V30 1 O 30.4825 -1.7225 17.7745 0
M  V30 2 C 30.8849 -2.7538 18.272 0
M  V30 3 O 30.0493 -3.5975 18.9041 0
M  V30 4 C 32.2543 -3.3009 18.3125 0
M  V30 5 C 33.1309 -3.2881 19.3385 0
M  V30 6 C 32.857 -2.7 20.6487 0
M  V30 7 C 34.4874 -3.9214 19.1276 0
M  V30 8 C 32.116 -3.2468 21.6292 0
M  V30 9 C 31.9001 -2.5841 22.9022 0
M  V30 10 C 32.6899 -2.6225 23.9969 0
M  V30 11 C 32.2665 -1.8679 25.1794 0
M  V30 12 C 33.9846 -3.39 24.0968 0
M  V30 13 C 31.294 -0.9413 25.2358 0
M  V30 14 C 30.9228 -0.2464 26.4662 0
M  V30 15 C 31.6346 0.8114 26.9267 0
M  V30 16 C 29.6832 -0.8018 27.2004 0
M  V30 17 C 31.3143 1.5005 28.2354 0
M  V30 18 C 32.8019 1.4444 26.2067 0
M  V30 19 C 29.195 0.1791 28.3004 0
M  V30 20 C 28.486 -1.0238 26.2471 0
M  V30 21 C 30.0413 -2.1573 27.8498 0
M  V30 22 C 30.3427 0.7379 29.1262 0
M  V30 END ATOM
M  V30 BEGIN BOND
M  V30 1 2 1 2
M  V30 2 1 2 3
M  V30 3 1 2 4
M  V30 4 2 4 5
M  V30 5 1 5 6
M  V30 6 1 5 7
M  V30 7 2 6 8
M  V30 8 1 8 9
M  V30 9 2 9 10
M  V30 10 1 10 11
M  V30 11 1 10 12
M  V30 12 2 11 13
M  V30 13 1 13 14
M  V30 14 2 14 15
M  V30 15 1 14 16
M  V30 16 1 15 17
M  V30 17 1 15 18
M  V30 18 1 16 19
M  V30 19 1 16 20
M  V30 20 1 16 21
M  V30 21 1 17 22
M  V30 22 1 19 22
M  V30 END BOND
M  V30 END CTAB
M  END
>  <Molecule Name>
ZINC000003792789

>  <minimizedAffinity>
-8.20132

$$$$
ZINC000001530637
Actelion Java MolfileCreator 2.0

  0  0  0  0  0  0              0 V3000
M  V30 BEGIN CTAB
M  V30 COUNTS 22 23 0 0 0
M  V30 BEGIN ATOM
M  V30 1 F 34.2502 -3.9146 22.5638 0
M  V30 2 C 32.9629 -3.4708 22.5087 0
M  V30 3 F 32.1969 -4.575 22.2906 0
M  V30 4 F 32.8769 -2.7251 21.3717 0
M  V30 5 C 32.5438 -2.7178 23.747 0
M  V30 6 C 32.8693 -3.202 25.0227 0
M  V30 7 C 31.7942 -1.5387 23.6479 0
M  V30 8 C 32.4642 -2.5177 26.1755 0
M  V30 9 C 31.3929 -0.8585 24.8005 0
M  V30 10 C 31.717 -1.3458 26.069 0
M  V30 11 O 31.2675 -0.574 27.102 0
M  V30 12 C 30.8736 -1.2083 28.3291 0 CFG=2
M  V30 13 C 29.4143 -1.6122 28.165 0
M  V30 14 C 31.0697 -0.2275 29.501 0
M  V30 15 C 29.0385 -2.9626 28.0773 0
M  V30 16 C 28.4139 -0.6301 28.0872 0
M  V30 17 C 32.4565 -0.3509 30.1391 0
M  V30 18 C 27.7001 -3.3203 27.9092 0
M  V30 19 C 27.0754 -0.9904 27.919 0
M  V30 20 N 33.4331 -1.0095 29.2645 0
M  V30 21 C 26.7195 -2.3342 27.8284 0
M  V30 22 C 34.5042 -0.1112 28.8477 0
M  V30 END ATOM
M  V30 BEGIN BOND
M  V30 1 1 1 2
M  V30 2 1 2 3
M  V30 3 1 2 4
M  V30 4 1 2 5
M  V30 5 2 5 6
M  V30 6 1 5 7
M  V30 7 1 6 8
M  V30 8 2 7 9
M  V30 9 2 8 10
M  V30 10 1 10 11
M  V30 11 1 11 12
M  V30 12 1 12 13
M  V30 13 1 12 14
M  V30 14 2 13 15
M  V30 15 1 13 16
M  V30 16 1 14 17
M  V30 17 1 15 18
M  V30 18 2 16 19
M  V30 19 1 17 20
M  V30 20 2 18 21
M  V30 21 1 20 22
M  V30 22 1 9 10
M  V30 23 1 19 21
M  V30 END BOND
M  V30 BEGIN COLLECTION
M  V30 MDLV30/STEABS ATOMS=(1 12)
M  V30 END COLLECTION
M  V30 END CTAB
M  END
>  <Molecule Name>
ZINC000001530637

>  <minimizedAffinity>
-8.07203

$$$$
ZINC000100009280
Actelion Java MolfileCreator 2.0

  0  0  0  0  0  0              0 V3000
M  V30 BEGIN CTAB
M  V30 COUNTS 21 23 0 0 0
M  V30 BEGIN ATOM
M  V30 1 O 30.5916 -0.9123 24.8313 0
M  V30 2 C 30.178 -0.2386 25.7662 0
M  V30 3 O 30.9461 0.5965 26.5254 0
M  V30 4 C 28.7359 -0.1997 26.2457 0 CFG=1
M  V30 5 C 32.349 0.266 26.6394 0 CFG=2
M  V30 6 C 28.3441 -1.5023 26.9258 0
M  V30 7 C 28.5189 1.0319 27.1375 0
M  V30 8 C 32.4646 -0.9436 27.5813 0
M  V30 9 C 33.1468 1.4884 27.1273 0
M  V30 10 C 27.154 -2.1526 26.5647 0
M  V30 11 C 29.165 -2.092 27.9004 0
M  V30 12 O 27.1311 1.3477 27.2696 0
M  V30 13 C 32.5751 -0.5582 29.0686 0 CFG=1
M  V30 14 C 33.1935 1.6226 28.6618 0 CFG=2
M  V30 15 C 26.7957 -3.3622 27.1624 0
M  V30 16 C 28.8036 -3.3015 28.4962 0
M  V30 17 N 33.659 0.396 29.3152 0
M  V30 18 C 31.3785 0.2763 29.5413 0
M  V30 19 C 31.7928 1.7285 29.2746 0
M  V30 20 C 27.6202 -3.9362 28.127 0
M  V30 21 C 34.9972 -0.0453 28.9728 0
M  V30 END ATOM
M  V30 BEGIN BOND
M  V30 1 2 1 2
M  V30 2 1 2 3
M  V30 3 1 2 4
M  V30 4 1 3 5
M  V30 5 1 4 6
M  V30 6 1 4 7
M  V30 7 1 5 8
M  V30 8 1 5 9
M  V30 9 2 6 10
M  V30 10 1 6 11
M  V30 11 1 7 12
M  V30 12 1 8 13
M  V30 13 1 9 14
M  V30 14 1 10 15
M  V30 15 2 11 16
M  V30 16 1 13 17
M  V30 17 1 13 18
M  V30 18 1 14 19
M  V30 19 2 15 20
M  V30 20 1 17 21
M  V30 21 1 14 17
M  V30 22 1 16 20
M  V30 23 1 18 19
M  V30 END BOND
M  V30 BEGIN COLLECTION
M  V30 MDLV30/STEABS ATOMS=(4 4 5 13 14)
M  V30 END COLLECTION
M  V30 END CTAB
M  END
>  <Molecule Name>
ZINC000100009280

>  <minimizedAffinity>
-8.04562

$$$$
ZINC000036766734
Actelion Java MolfileCreator 2.0

  0  0  0  0  0  0              0 V3000
M  V30 BEGIN CTAB
M  V30 COUNTS 22 22 0 0 0
M  V30 BEGIN ATOM
M  V30 1 O 25.1283 -0.0906 28.2647 0
M  V30 2 C 25.4846 -0.5916 27.2182 0
M  V30 3 O 24.628 -0.7555 26.1936 0
M  V30 4 C 26.8153 -1.0911 26.8271 0
M  V30 5 C 27.3994 -2.2444 27.2139 0
M  V30 6 C 28.7515 -2.5291 26.718 0
M  V30 7 C 26.762 -3.2742 28.1135 0
M  V30 8 C 29.9049 -2.332 27.3793 0
M  V30 9 C 31.2005 -2.6554 26.8097 0
M  V30 10 C 32.0412 -1.8124 26.1732 0
M  V30 11 C 31.6958 -0.4272 25.8747 0
M  V30 12 C 33.3579 -2.3299 25.652 0
M  V30 13 C 31.6824 0.6505 26.679 0
M  V30 14 C 31.9666 0.7444 28.1085 0
M  V30 15 C 30.9858 0.7017 29.0461 0
M  V30 16 C 33.4512 0.9665 28.4783 0
M  V30 17 C 31.2699 0.7924 30.5312 0
M  V30 18 C 29.5086 0.5718 28.7505 0
M  V30 19 C 33.7052 0.6311 29.972 0
M  V30 20 C 34.4181 0.0791 27.6606 0
M  V30 21 C 33.8227 2.4439 28.2121 0
M  V30 22 C 32.6726 1.2647 30.8894 0
M  V30 END ATOM
M  V30 BEGIN BOND
M  V30 1 2 1 2
M  V30 2 1 2 3
M  V30 3 1 2 4
M  V30 4 2 4 5
M  V30 5 1 5 6
M  V30 6 1 5 7
M  V30 7 2 6 8
M  V30 8 1 8 9
M  V30 9 2 9 10
M  V30 10 1 10 11
M  V30 11 1 10 12
M  V30 12 2 11 13
M  V30 13 1 13 14
M  V30 14 2 14 15
M  V30 15 1 14 16
M  V30 16 1 15 17
M  V30 17 1 15 18
M  V30 18 1 16 19
M  V30 19 1 16 20
M  V30 20 1 16 21
M  V30 21 1 17 22
M  V30 22 1 19 22
M  V30 END BOND
M  V30 END CTAB
M  END
>  <Molecule Name>
ZINC000036766734

>  <minimizedAffinity>
-8.01443

$$$$
ZINC000000105216
Actelion Java MolfileCreator 2.0

  0  0  0  0  0  0              0 V3000
M  V30 BEGIN CTAB
M  V30 COUNTS 17 18 0 0 0
M  V30 BEGIN ATOM
M  V30 1 O 25.9297 -2.9072 28.6202 0
M  V30 2 C 26.5477 -2.7532 27.577 0
M  V30 3 O 27.018 -3.8284 26.9133 0
M  V30 4 C 26.8114 -1.4249 26.8914 0 CFG=2
M  V30 5 C 27.9707 -0.684 27.5338 0
M  V30 6 C 25.5488 -0.5655 26.7796 0
M  V30 7 C 29.1126 -1.3913 27.9446 0
M  V30 8 C 27.9269 0.6988 27.7504 0
M  V30 9 C 30.2012 -0.7377 28.5491 0
M  V30 10 C 29.0017 1.3608 28.3491 0
M  V30 11 C 30.1452 0.6562 28.7516 0
M  V30 12 C 31.345 -1.4406 28.9579 0
M  V30 13 C 31.2345 1.3069 29.3552 0
M  V30 14 C 32.4216 -0.7782 29.5581 0
M  V30 15 C 32.3705 0.599 29.7586 0
M  V30 16 O 33.3483 1.3661 30.3303 0
M  V30 17 C 34.6682 1.2048 29.8274 0
M  V30 END ATOM
M  V30 BEGIN BOND
M  V30 1 2 1 2
M  V30 2 1 2 3
M  V30 3 1 2 4
M  V30 4 1 4 5
M  V30 5 1 4 6
M  V30 6 2 5 7
M  V30 7 1 5 8
M  V30 8 1 7 9
M  V30 9 2 8 10
M  V30 10 1 9 11
M  V30 11 2 9 12
M  V30 12 2 11 13
M  V30 13 1 12 14
M  V30 14 1 13 15
M  V30 15 1 15 16
M  V30 16 1 16 17
M  V30 17 1 10 11
M  V30 18 2 14 15
M  V30 END BOND
M  V30 BEGIN COLLECTION
M  V30 MDLV30/STEABS ATOMS=(1 4)
M  V30 END COLLECTION
M  V30 END CTAB
M  END
>  <Molecule Name>
ZINC000000105216

>  <minimizedAffinity>
-7.99182

$$$$
ZINC000000056556
Actelion Java MolfileCreator 2.0

  0  0  0  0  0  0              0 V3000
M  V30 BEGIN CTAB
M  V30 COUNTS 19 20 0 0 0
M  V30 BEGIN ATOM
M  V30 1 O 30.8568 -0.4491 28.2913 0
M  V30 2 C 29.5344 -0.1748 28.0344 0
M  V30 3 C 31.3146 -0.3402 29.6428 0
M  V30 4 C 28.6589 -1.2917 28.0179 0
M  V30 5 C 29.0335 1.1093 27.7936 0
M  V30 6 C 32.8363 -0.5321 29.6612 0 CFG=1
M  V30 7 C 27.2796 -1.0849 27.7689 0
M  V30 8 C 29.0998 -2.6151 28.2399 0
M  V30 9 C 27.6748 1.3012 27.5476 0
M  V30 10 O 33.2523 -1.2605 28.495 0
M  V30 11 C 33.5689 0.8232 29.669 0
M  V30 12 C 26.8049 0.2135 27.5377 0
M  V30 13 C 26.3994 -2.1805 27.7535 0
M  V30 14 C 28.2139 -3.6943 28.2206 0
M  V30 15 N 32.8297 1.7778 28.8244 0
M  V30 16 C 26.8633 -3.4762 27.9784 0
M  V30 17 C 33.6429 2.3255 27.731 0
M  V30 18 C 35.1372 2.0632 27.9232 0
M  V30 19 C 33.1661 1.6801 26.4285 0
M  V30 END ATOM
M  V30 BEGIN BOND
M  V30 1 1 1 2
M  V30 2 1 1 3
M  V30 3 1 2 4
M  V30 4 2 2 5
M  V30 5 1 3 6
M  V30 6 1 4 7
M  V30 7 2 4 8
M  V30 8 1 5 9
M  V30 9 1 6 10
M  V30 10 1 6 11
M  V30 11 1 7 12
M  V30 12 2 7 13
M  V30 13 1 8 14
M  V30 14 1 11 15
M  V30 15 1 13 16
M  V30 16 1 15 17
M  V30 17 1 17 18
M  V30 18 1 17 19
M  V30 19 2 9 12
M  V30 20 2 14 16
M  V30 END BOND
M  V30 BEGIN COLLECTION
M  V30 MDLV30/STEABS ATOMS=(1 6)
M  V30 END COLLECTION
M  V30 END CTAB
M  END
>  <Molecule Name>
ZINC000000056556

>  <minimizedAffinity>
-7.99053

$$$$
ZINC000000001758
Actelion Java MolfileCreator 2.0

  0  0  0  0  0  0              0 V3000
M  V30 BEGIN CTAB
M  V30 COUNTS 23 24 0 0 0
M  V30 BEGIN ATOM
M  V30 1 O 27.0816 -3.7239 27.4425 0
M  V30 2 C 27.0671 -2.5184 27.6031 0
M  V30 3 O 25.9822 -1.7062 27.7442 0
M  V30 4 C 28.2452 -1.6756 27.6777 0
M  V30 5 C 26.3709 -0.3274 27.926 0
M  V30 6 C 29.5717 -2.0586 27.5938 0
M  V30 7 C 27.8482 -0.3685 27.8662 0
M  V30 8 O 29.9268 -3.3664 27.4214 0
M  V30 9 C 30.56 -1.0701 27.6897 0
M  V30 10 C 28.7907 0.647 27.9753 0
M  V30 11 C 30.1489 0.2822 27.8353 0
M  V30 12 C 32.027 -1.4454 27.629 0
M  V30 13 C 28.3631 2.0683 28.1931 0
M  V30 14 O 31.1165 1.2561 27.9158 0
M  V30 15 C 32.3518 -2.3456 26.4642 0
M  V30 16 C 31.5193 1.4508 29.2742 0
M  V30 17 C 32.3092 -2.0672 25.1449 0
M  V30 18 C 32.683 -3.1368 24.1338 0
M  V30 19 C 31.8867 -0.7494 24.5526 0
M  V30 20 C 32.7153 -2.6031 22.7031 0
M  V30 21 C 31.9589 -3.5089 21.7728 0
M  V30 22 O 31.3904 -3.2054 20.7384 0
M  V30 23 O 31.9713 -4.7885 22.1958 0
M  V30 END ATOM
M  V30 BEGIN BOND
M  V30 1 2 1 2
M  V30 2 1 2 3
M  V30 3 1 2 4
M  V30 4 1 3 5
M  V30 5 2 4 6
M  V30 6 1 4 7
M  V30 7 1 6 8
M  V30 8 1 6 9
M  V30 9 2 7 10
M  V30 10 2 9 11
M  V30 11 1 9 12
M  V30 12 1 10 13
M  V30 13 1 11 14
M  V30 14 1 12 15
M  V30 15 1 14 16
M  V30 16 2 15 17
M  V30 17 1 17 18
M  V30 18 1 17 19
M  V30 19 1 18 20
M  V30 20 1 20 21
M  V30 21 2 21 22
M  V30 22 1 21 23
M  V30 23 1 5 7
M  V30 24 1 10 11
M  V30 END BOND
M  V30 END CTAB
M  END
>  <Molecule Name>
ZINC000000001758

>  <minimizedAffinity>
-7.95703

$$$$
ZINC000000491073
Actelion Java MolfileCreator 2.0

  0  0  0  0  0  0              0 V3000
M  V30 BEGIN CTAB
M  V30 COUNTS 21 24 0 0 0
M  V30 BEGIN ATOM
M  V30 1 O 29.7262 -1.8179 26.3016 0
M  V30 2 C 29.3546 -0.7401 27.0746 0
M  V30 3 C 30.9896 -2.2232 26.8909 0 CFG=2
M  V30 4 C 28.0723 -0.2137 27.1089 0
M  V30 5 C 30.4096 -0.207 27.8161 0
M  V30 6 C 31.6659 -0.9584 27.5106 0 CFG=2
M  V30 7 C 31.8418 -2.922 25.8307 0
M  V30 8 O 27.1376 -0.8201 26.3215 0
M  V30 9 C 27.8595 0.878 27.9502 0
M  V30 10 C 30.2156 0.8824 28.6545 0
M  V30 11 C 32.5156 -0.2036 26.4987 0
M  V30 12 C 32.4676 -1.3566 28.7609 0
M  V30 13 C 32.2951 -1.9622 24.731 0 CFG=2
M  V30 14 C 25.7883 -0.7632 26.7618 0
M  V30 15 C 28.9162 1.4164 28.7116 0
M  V30 16 C 31.3441 1.5244 29.4224 0
M  V30 17 C 32.7732 -0.648 25.2586 0
M  V30 18 C 33.0658 -0.2104 29.585 0
M  V30 19 O 31.2355 -1.6961 23.8231 0
M  V30 20 N 32.0706 0.5983 30.3085 0
M  V30 21 C 32.7468 1.3665 31.3618 0
M  V30 END ATOM
M  V30 BEGIN BOND
M  V30 1 1 1 2
M  V30 2 1 1 3
M  V30 3 2 2 4
M  V30 4 1 2 5
M  V30 5 1 3 6
M  V30 6 1 3 7
M  V30 7 1 4 8
M  V30 8 1 4 9
M  V30 9 2 5 10
M  V30 10 1 6 11
M  V30 11 1 6 12
M  V30 12 1 7 13
M  V30 13 1 8 14
M  V30 14 2 9 15
M  V30 15 1 10 16
M  V30 16 2 11 17
M  V30 17 1 12 18
M  V30 18 1 13 19
M  V30 19 1 16 20
M  V30 20 1 20 21
M  V30 21 1 5 6
M  V30 22 1 10 15
M  V30 23 1 13 17
M  V30 24 1 18 20
M  V30 END BOND
M  V30 BEGIN COLLECTION
M  V30 MDLV30/STEABS ATOMS=(3 3 6 13)
M  V30 END COLLECTION
M  V30 END CTAB
M  END
>  <Molecule Name>
ZINC000000491073

>  <minimizedAffinity>
-7.91136

$$$$
ZINC000003812851
Actelion Java MolfileCreator 2.0

  0  0  0  0  0  0              0 V3000
M  V30 BEGIN CTAB
M  V30 COUNTS 25 26 0 0 0
M  V30 BEGIN ATOM
M  V30 1 O 33.2085 -1.6158 29.3596 0
M  V30 2 C 33.8757 -0.591 29.3951 0
M  V30 3 O 35.2224 -0.6428 29.3222 0
M  V30 4 C 33.3621 0.8508 29.4585 0 CFG=1
M  V30 5 N 32.0202 0.9881 28.8778 0
M  V30 6 C 33.185 1.2823 30.9139 0
M  V30 7 C 31.6659 1.0918 27.5445 0
M  V30 8 C 31.0194 1.1836 29.9135 0
M  V30 9 C 31.7407 0.8972 31.2208 0
M  V30 10 O 30.5058 1.359 27.2217 0
M  V30 11 C 32.771 0.8604 26.4846 0 CFG=1
M  V30 12 N 32.3555 -0.0441 25.3823 0
M  V30 13 C 33.1532 2.212 25.8858 0
M  V30 14 C 32.1669 -1.4657 25.7702 0 CFG=2
M  V30 15 C 32.7145 -2.4204 24.7078 0
M  V30 16 C 30.6787 -1.7778 25.979 0
M  V30 17 O 33.3794 -3.4283 24.907 0
M  V30 18 O 32.2972 -2.0884 23.4687 0
M  V30 19 C 30.3909 -2.3669 27.3627 0
M  V30 20 C 28.9115 -2.3659 27.6623 0
M  V30 21 C 28.1891 -1.1653 27.6726 0
M  V30 22 C 28.2474 -3.5623 27.9633 0
M  V30 23 C 26.8254 -1.1635 27.969 0
M  V30 24 C 26.8836 -3.5585 28.2597 0
M  V30 25 C 26.173 -2.3595 28.262 0
M  V30 END ATOM
M  V30 BEGIN BOND
M  V30 1 2 1 2
M  V30 2 1 2 3
M  V30 3 1 2 4
M  V30 4 1 4 5
M  V30 5 1 4 6
M  V30 6 1 5 7
M  V30 7 1 5 8
M  V30 8 1 6 9
M  V30 9 2 7 10
M  V30 10 1 7 11
M  V30 11 1 11 12
M  V30 12 1 11 13
M  V30 13 1 12 14
M  V30 14 1 14 15
M  V30 15 1 14 16
M  V30 16 2 15 17
M  V30 17 1 15 18
M  V30 18 1 16 19
M  V30 19 1 19 20
M  V30 20 2 20 21
M  V30 21 1 20 22
M  V30 22 1 21 23
M  V30 23 2 22 24
M  V30 24 2 23 25
M  V30 25 1 8 9
M  V30 26 1 24 25
M  V30 END BOND
M  V30 BEGIN COLLECTION
M  V30 MDLV30/STEABS ATOMS=(3 4 11 14)
M  V30 END COLLECTION
M  V30 END CTAB
M  END
>  <Molecule Name>
ZINC000003812851

>  <minimizedAffinity>
-7.88551

$$$$
ZINC000001542002
Actelion Java MolfileCreator 2.0

  0  0  0  0  0  0              0 V3000
M  V30 BEGIN CTAB
M  V30 COUNTS 22 22 0 0 0
M  V30 BEGIN ATOM
M  V30 1 O 27.2341 -3.2499 26.4789 0
M  V30 2 C 27.1222 -1.878 26.1132 0
M  V30 3 C 26.3024 -1.0854 27.1614 0
M  V30 4 N 24.9218 -0.87 26.6585 0
M  V30 5 C 26.2282 -1.9196 28.4739 0
M  V30 6 C 26.9341 0.2985 27.4736 0
M  V30 7 O 25.3497 -3.0402 28.3273 0
M  V30 8 C 28.3107 0.5403 26.8398 0
M  V30 9 C 29.4069 0.4963 27.8784 0
M  V30 10 C 29.9753 -0.7243 28.2597 0
M  V30 11 C 29.8893 1.6785 28.4526 0
M  V30 12 C 31.0008 -0.763 29.2068 0
M  V30 13 C 30.9155 1.6395 29.3995 0
M  V30 14 C 31.4798 0.4184 29.7869 0
M  V30 15 C 32.5823 0.3743 30.8158 0
M  V30 16 C 33.8044 1.2244 30.4504 0
M  V30 17 C 34.428 0.8316 29.1077 0
M  V30 18 C 34.6434 2.0573 28.2169 0
M  V30 19 C 33.7359 2.0167 26.9863 0
M  V30 20 C 33.2671 0.5917 26.6872 0
M  V30 21 C 32.2363 0.5705 25.5588 0
M  V30 22 C 31.9179 -0.8503 25.1212 0
M  V30 END ATOM
M  V30 BEGIN BOND
M  V30 1 1 1 2
M  V30 2 1 2 3
M  V30 3 1 3 4
M  V30 4 1 3 5
M  V30 5 1 3 6
M  V30 6 1 5 7
M  V30 7 1 6 8
M  V30 8 1 8 9
M  V30 9 2 9 10
M  V30 10 1 9 11
M  V30 11 1 10 12
M  V30 12 2 11 13
M  V30 13 2 12 14
M  V30 14 1 14 15
M  V30 15 1 15 16
M  V30 16 1 16 17
M  V30 17 1 17 18
M  V30 18 1 18 19
M  V30 19 1 19 20
M  V30 20 1 20 21
M  V30 21 1 21 22
M  V30 22 1 13 14
M  V30 END BOND
M  V30 END CTAB
M  END
>  <Molecule Name>
ZINC000001542002

>  <minimizedAffinity>
-7.77029

$$$$
ZINC000004474564
Actelion Java MolfileCreator 2.0

  0  0  0  0  0  0              0 V3000
M  V30 BEGIN CTAB
M  V30 COUNTS 24 23 0 0 0
M  V30 BEGIN ATOM
M  V30 1 O 33.7591 2.1666 27.0376 0
M  V30 2 C 34.5994 1.717 27.7968 0
M  V30 3 O 35.8505 2.219 27.8061 0
M  V30 4 C 34.4364 0.6009 28.7895 0
M  V30 5 C 33.7904 1.1014 30.0775 0
M  V30 6 C 32.554 0.3136 30.4097 0
M  V30 7 C 31.2922 0.5869 30.0381 0
M  V30 8 C 30.8043 1.7665 29.2452 0
M  V30 9 C 30.5511 1.3885 27.8148 0
M  V30 10 C 29.375 1.0951 27.2342 0
M  V30 11 C 28.0121 1.0681 27.8634 0
M  V30 12 C 27.0297 0.3504 26.9841 0
M  V30 13 C 26.2444 -0.693 27.3021 0
M  V30 14 C 26.1801 -1.43 28.6084 0
M  V30 15 C 26.3504 -2.9089 28.4105 0
M  V30 16 C 27.3634 -3.5402 27.7922 0
M  V30 17 C 28.5995 -2.9231 27.2042 0
M  V30 18 C 29.5685 -2.519 28.2773 0
M  V30 19 C 30.9025 -2.3863 28.1781 0
M  V30 20 C 31.7676 -2.6066 26.9708 0
M  V30 21 C 32.4405 -1.33 26.555 0
M  V30 22 C 32.3123 -0.6701 25.392 0
M  V30 23 C 31.4289 -1.0259 24.2316 0
M  V30 24 C 32.0921 -2.0511 23.3264 0
M  V30 END ATOM
M  V30 BEGIN BOND
M  V30 1 2 1 2
M  V30 2 1 2 3
M  V30 3 1 2 4
M  V30 4 1 4 5
M  V30 5 1 5 6
M  V30 6 2 6 7
M  V30 7 1 7 8
M  V30 8 1 8 9
M  V30 9 2 9 10
M  V30 10 1 10 11
M  V30 11 1 11 12
M  V30 12 2 12 13
M  V30 13 1 13 14
M  V30 14 1 14 15
M  V30 15 2 15 16
M  V30 16 1 16 17
M  V30 17 1 17 18
M  V30 18 2 18 19
M  V30 19 1 19 20
M  V30 20 1 20 21
M  V30 21 2 21 22
M  V30 22 1 22 23
M  V30 23 1 23 24
M  V30 END BOND
M  V30 END CTAB
M  END
>  <Molecule Name>
ZINC000004474564

>  <minimizedAffinity>
-7.73994

$$$$
ZINC000100015048
Actelion Java MolfileCreator 2.0

  0  0  0  0  0  0              0 V3000
M  V30 BEGIN CTAB
M  V30 COUNTS 30 32 0 0 0
M  V30 BEGIN ATOM
M  V30 1 O 30.3844 -1.5051 26.745 0
M  V30 2 C 31.8116 -1.5483 26.6085 0
M  V30 3 C 32.1559 -2.8081 25.786 0
M  V30 4 C 32.2503 -0.2581 25.9132 0
M  V30 5 C 32.3803 -1.6067 28.0268 0
M  V30 6 C 32.5603 -2.5519 24.3307 0
M  V30 7 C 32.9311 -3.8339 23.5653 0
M  V30 8 C 32.6616 -3.8103 22.0433 0 CFG=2
M  V30 9 C 33.5679 -2.8481 21.2234 0 CFG=2
M  V30 10 C 31.1874 -3.4477 21.7892 0
M  V30 11 C 33.5678 -2.9881 19.6723 0 CFG=2
M  V30 12 C 35.0695 -2.8092 21.5907 0
M  V30 13 C 34.705 -1.9903 19.3278 0 CFG=1
M  V30 14 C 32.2698 -2.4908 19.0023 0
M  V30 15 C 33.8738 -4.428 19.2021 0
M  V30 16 C 35.8142 -2.3675 20.3154 0
M  V30 17 C 34.9378 -1.8943 17.834 0
M  V30 18 C 32.4432 -2.3025 17.4868 0
M  V30 19 C 36.1254 -2.1608 17.2568 0
M  V30 20 C 33.6723 -1.4586 17.1104 0
M  V30 21 C 36.451 -2.0512 15.8487 0
M  V30 22 C 37.4696 -2.6497 15.1965 0
M  V30 23 C 38.4393 -3.6074 15.7408 0
M  V30 24 C 37.7716 -2.2918 13.7516 0
M  V30 25 C 38.0931 -4.6465 16.5209 0
M  V30 26 C 39.8781 -3.4041 15.2897 0 CFG=1
M  V30 27 C 39.1697 -1.6588 13.5986 0 CFG=2
M  V30 28 O 40.1779 -4.3354 14.2477 0
M  V30 29 C 40.1218 -1.9945 14.7539 0
M  V30 30 O 39.0694 -0.233 13.5113 0
M  V30 END ATOM
M  V30 BEGIN BOND
M  V30 1 1 1 2
M  V30 2 1 2 3
M  V30 3 1 2 4
M  V30 4 1 2 5
M  V30 5 1 3 6
M  V30 6 1 6 7
M  V30 7 1 7 8
M  V30 8 1 8 9
M  V30 9 1 8 10
M  V30 10 1 9 11
M  V30 11 1 9 12
M  V30 12 1 11 13
M  V30 13 1 11 14
M  V30 14 1 11 15
M  V30 15 1 12 16
M  V30 16 1 13 17
M  V30 17 1 14 18
M  V30 18 2 17 19
M  V30 19 1 17 20
M  V30 20 1 19 21
M  V30 21 2 21 22
M  V30 22 1 22 23
M  V30 23 1 22 24
M  V30 24 2 23 25
M  V30 25 1 23 26
M  V30 26 1 24 27
M  V30 27 1 26 28
M  V30 28 1 26 29
M  V30 29 1 27 30
M  V30 30 1 13 16
M  V30 31 1 18 20
M  V30 32 1 27 29
M  V30 END BOND
M  V30 BEGIN COLLECTION
M  V30 MDLV30/STEABS ATOMS=(6 8 9 11 13 26 27)
M  V30 END COLLECTION
M  V30 END CTAB
M  END
>  <Molecule Name>
ZINC000100015048

>  <minimizedAffinity>
-7.72872

$$$$
ZINC000012495062
Actelion Java MolfileCreator 2.0

  0  0  0  0  0  0              0 V3000
M  V30 BEGIN CTAB
M  V30 COUNTS 25 26 0 0 0
M  V30 BEGIN ATOM
M  V30 1 O 29.2872 -2.5804 28.1611 0
M  V30 2 C 28.382 -2.7855 27.3718 0
M  V30 3 O 27.8855 -4.0276 27.2063 0
M  V30 4 C 27.6856 -1.7846 26.4904 0
M  V30 5 C 26.6812 -0.9431 27.2749 0
M  V30 6 C 27.123 0.5194 27.3473 0
M  V30 7 C 28.0967 0.7361 28.4684 0
M  V30 8 C 29.3892 1.0642 28.3474 0
M  V30 9 O 30.1705 1.2194 29.4849 0
M  V30 10 C 30.1554 1.2621 27.0786 0
M  V30 11 C 31.4817 1.5892 29.0317 0 CFG=2
M  V30 12 C 31.5805 1.1794 27.569 0 CFG=1
M  V30 13 C 32.5371 0.7837 29.79 0
M  V30 14 C 32.1675 -0.239 27.6292 0 CFG=2
M  V30 15 C 33.22 -0.0906 28.7368 0 CFG=2
M  V30 16 C 32.7458 -0.6702 26.3029 0
M  V30 17 O 33.5878 -1.3492 29.2788 0
M  V30 18 C 32.6055 -1.9095 25.8012 0
M  V30 19 C 33.1471 -2.4452 24.5006 0 CFG=1
M  V30 20 O 33.2928 -3.8553 24.6494 0
M  V30 21 C 32.3007 -2.1716 23.2486 0
M  V30 22 C 32.5071 -3.1804 22.1093 0
M  V30 23 C 33.8576 -3.0359 21.4048 0
M  V30 24 C 33.6796 -2.5808 19.9555 0
M  V30 25 C 32.3981 -3.133 19.3514 0
M  V30 END ATOM
M  V30 BEGIN BOND
M  V30 1 2 1 2
M  V30 2 1 2 3
M  V30 3 1 2 4
M  V30 4 1 4 5
M  V30 5 1 5 6
M  V30 6 1 6 7
M  V30 7 2 7 8
M  V30 8 1 8 9
M  V30 9 1 8 10
M  V30 10 1 9 11
M  V30 11 1 10 12
M  V30 12 1 11 13
M  V30 13 1 12 14
M  V30 14 1 13 15
M  V30 15 1 14 16
M  V30 16 1 15 17
M  V30 17 2 16 18
M  V30 18 1 18 19
M  V30 19 1 19 20
M  V30 20 1 19 21
M  V30 21 1 21 22
M  V30 22 1 22 23
M  V30 23 1 23 24
M  V30 24 1 24 25
M  V30 25 1 11 12
M  V30 26 1 14 15
M  V30 END BOND
M  V30 BEGIN COLLECTION
M  V30 MDLV30/STEABS ATOMS=(5 11 12 14 15 19)
M  V30 END COLLECTION
M  V30 END CTAB
M  END
>  <Molecule Name>
ZINC000012495062

>  <minimizedAffinity>
-7.70167

$$$$
ZINC000100009278
Actelion Java MolfileCreator 2.0

  0  0  0  0  0  0              0 V3000
M  V30 BEGIN CTAB
M  V30 COUNTS 21 23 0 0 0
M  V30 BEGIN ATOM
M  V30 1 O 31.6159 -3.1043 26.2229 0
M  V30 2 C 30.9164 -2.5134 27.0387 0
M  V30 3 O 31.3949 -1.7236 28.0409 0
M  V30 4 C 29.3944 -2.5055 27.0219 0 CFG=2
M  V30 5 C 32.692 -1.119 27.8445 0 CFG=2
M  V30 6 C 28.817 -1.0999 27.0884 0
M  V30 7 C 28.8521 -3.3778 28.1627 0
M  V30 8 C 33.3884 -1.0657 29.2141 0
M  V30 9 C 32.5302 0.2666 27.1971 0
M  V30 10 C 27.8959 -0.7701 28.0944 0
M  V30 11 C 29.1794 -0.1151 26.1552 0
M  V30 12 O 27.8225 -4.2515 27.6978 0
M  V30 13 C 33.0475 0.1963 30.0291 0 CFG=1
M  V30 14 C 32.2773 1.3936 28.2173 0 CFG=2
M  V30 15 C 27.3516 0.513 28.1655 0
M  V30 16 C 28.6332 1.1671 26.2297 0
M  V30 17 N 33.2928 1.4281 29.2732 0
M  V30 18 C 31.5407 0.3391 30.275 0
M  V30 19 C 31.0272 1.1337 29.0672 0
M  V30 20 C 27.7203 1.4809 27.2341 0
M  V30 21 C 34.659 1.6579 28.8439 0
M  V30 END ATOM
M  V30 BEGIN BOND
M  V30 1 2 1 2
M  V30 2 1 2 3
M  V30 3 1 2 4
M  V30 4 1 3 5
M  V30 5 1 4 6
M  V30 6 1 4 7
M  V30 7 1 5 8
M  V30 8 1 5 9
M  V30 9 2 6 10
M  V30 10 1 6 11
M  V30 11 1 7 12
M  V30 12 1 8 13
M  V30 13 1 9 14
M  V30 14 1 10 15
M  V30 15 2 11 16
M  V30 16 1 13 17
M  V30 17 1 13 18
M  V30 18 1 14 19
M  V30 19 2 15 20
M  V30 20 1 17 21
M  V30 21 1 14 17
M  V30 22 1 16 20
M  V30 23 1 18 19
M  V30 END BOND
M  V30 BEGIN COLLECTION
M  V30 MDLV30/STEABS ATOMS=(4 4 5 13 14)
M  V30 END COLLECTION
M  V30 END CTAB
M  END
>  <Molecule Name>
ZINC000100009278

>  <minimizedAffinity>
-7.64352

$$$$
ZINC000003875332
Actelion Java MolfileCreator 2.0

  0  0  0  0  0  0              0 V3000
M  V30 BEGIN CTAB
M  V30 COUNTS 28 31 0 0 0
M  V30 BEGIN ATOM
M  V30 1 F 29.5305 -2.0505 29.1507 0
M  V30 2 C 29.6676 -1.4067 27.9277 0 CFG=2
M  V30 3 C 28.3429 -1.7182 27.1178 0 CFG=2
M  V30 4 C 30.9855 -1.9911 27.3264 0 CFG=1
M  V30 5 C 29.8024 0.1121 28.2818 0 CFG=2
M  V30 6 C 27.1618 -1.1251 27.9076 0
M  V30 7 C 28.1671 -3.2224 26.9228 0
M  V30 8 C 28.3144 -1.0978 25.7018 0
M  V30 9 O 31.1702 -1.7474 25.9368 0
M  V30 10 C 32.2653 -1.5998 28.1035 0
M  V30 11 C 31.0517 0.3018 29.1587 0 CFG=1
M  V30 12 C 28.5478 0.6222 29.0173 0
M  V30 13 C 26.1097 -1.8487 28.3305 0
M  V30 14 C 27.2637 0.3398 28.2451 0
M  V30 15 C 27.1178 -3.9389 27.3474 0
M  V30 16 C 32.3703 -0.1011 28.4589 0 CFG=1
M  V30 17 C 31.3466 1.6818 29.7435 0
M  V30 18 C 26.0036 -3.2989 28.0712 0
M  V30 19 C 33.3947 0.2666 29.5893 0 CFG=1
M  V30 20 C 32.6658 0.7406 27.1889 0
M  V30 21 C 32.8525 1.6434 30.1129 0 CFG=2
M  V30 22 O 25.0304 -3.9423 28.4429 0
M  V30 23 O 33.3781 -0.7154 30.6282 0
M  V30 24 C 34.8541 0.3837 29.0951 0
M  V30 25 C 33.0951 1.912 31.5956 0
M  V30 26 O 35.5673 -0.6008 28.8725 0
M  V30 27 C 35.4159 1.7875 28.893 0
M  V30 28 O 35.8443 1.9826 27.5504 0
M  V30 END ATOM
M  V30 BEGIN BOND
M  V30 1 1 1 2
M  V30 2 1 2 3
M  V30 3 1 2 4
M  V30 4 1 2 5
M  V30 5 1 3 6
M  V30 6 1 3 7
M  V30 7 1 3 8
M  V30 8 1 4 9
M  V30 9 1 4 10
M  V30 10 1 5 11
M  V30 11 1 5 12
M  V30 12 2 6 13
M  V30 13 1 6 14
M  V30 14 2 7 15
M  V30 15 1 10 16
M  V30 16 1 11 17
M  V30 17 1 13 18
M  V30 18 1 16 19
M  V30 19 1 16 20
M  V30 20 1 17 21
M  V30 21 2 18 22
M  V30 22 1 19 23
M  V30 23 1 19 24
M  V30 24 1 21 25
M  V30 25 2 24 26
M  V30 26 1 24 27
M  V30 27 1 27 28
M  V30 28 1 11 16
M  V30 29 1 12 14
M  V30 30 1 15 18
M  V30 31 1 19 21
M  V30 END BOND
M  V30 BEGIN COLLECTION
M  V30 MDLV30/STEABS ATOMS=(8 2 3 4 5 11 16 19 21)
M  V30 END COLLECTION
M  V30 END CTAB
M  END
>  <Molecule Name>
ZINC000003875332

>  <minimizedAffinity>
-7.61789

$$$$
ZINC000001530625
Actelion Java MolfileCreator 2.0

  0  0  0  0  0  0              0 V3000
M  V30 BEGIN CTAB
M  V30 COUNTS 23 25 0 0 0
M  V30 BEGIN ATOM
M  V30 1 O 35.7744 -2.0269 19.4596 0
M  V30 2 C 34.4819 -2.4752 19.5255 0
M  V30 3 C 36.2176 -1.4833 18.1996 0
M  V30 4 C 33.6571 -2.6968 18.4128 0
M  V30 5 C 34.0158 -2.682 20.8294 0
M  V30 6 C 35.7586 -2.4115 17.06 0 CFG=1
M  V30 7 C 37.7532 -1.4719 18.3106 0
M  V30 8 C 35.7425 -0.0264 18.079 0
M  V30 9 C 32.309 -2.9948 18.6719 0
M  V30 10 C 34.2126 -2.4941 17.0143 0 CFG=1
M  V30 11 C 32.6897 -3.0494 21.0663 0
M  V30 12 C 36.2782 -2.0626 15.6571 0
M  V30 13 O 31.4157 -3.0559 17.6364 0
M  V30 14 C 31.8326 -3.1924 19.9733 0
M  V30 15 C 33.8281 -3.5242 15.9654 0
M  V30 16 C 32.1979 -3.2853 22.4711 0
M  V30 17 C 35.9384 -3.1825 14.6647 0
M  V30 18 C 34.5981 -3.8331 14.9037 0
M  V30 19 C 33.3561 -3.3591 23.4685 0
M  V30 20 C 34.1782 -4.8563 13.888 0
M  V30 21 C 33.045 -2.5664 24.7392 0
M  V30 22 C 31.9652 -1.5143 24.4882 0
M  V30 23 C 32.0335 -0.3906 25.5102 0
M  V30 END ATOM
M  V30 BEGIN BOND
M  V30 1 1 1 2
M  V30 2 1 1 3
M  V30 3 2 2 4
M  V30 4 1 2 5
M  V30 5 1 3 6
M  V30 6 1 3 7
M  V30 7 1 3 8
M  V30 8 1 4 9
M  V30 9 1 4 10
M  V30 10 2 5 11
M  V30 11 1 6 12
M  V30 12 1 9 13
M  V30 13 2 9 14
M  V30 14 1 10 15
M  V30 15 1 11 16
M  V30 16 1 12 17
M  V30 17 2 15 18
M  V30 18 1 16 19
M  V30 19 1 18 20
M  V30 20 1 19 21
M  V30 21 1 21 22
M  V30 22 1 22 23
M  V30 23 1 6 10
M  V30 24 1 11 14
M  V30 25 1 17 18
M  V30 END BOND
M  V30 BEGIN COLLECTION
M  V30 MDLV30/STEABS ATOMS=(2 6 10)
M  V30 END COLLECTION
M  V30 END CTAB
M  END
>  <Molecule Name>
ZINC000001530625

>  <minimizedAffinity>
-7.60236

$$$$
ZINC000026011099
Actelion Java MolfileCreator 2.0

  0  0  0  0  0  0              0 V3000
M  V30 BEGIN CTAB
M  V30 COUNTS 39 43 0 0 0
M  V30 BEGIN ATOM
M  V30 1 O 35.3812 -3.091 21.5888 0
M  V30 2 C 34.5404 -3.2054 20.7016 0
M  V30 3 O 34.8052 -3.2136 19.3693 0
M  V30 4 C 33.036 -3.3984 20.9893 0 CFG=2
M  V30 5 C 36.1882 -3.3519 19.0284 0 CFG=2
M  V30 6 O 32.8254 -4.7915 21.2681 0
M  V30 7 C 32.2987 -3.0194 19.7032 0
M  V30 8 C 32.652 -2.5725 22.2383 0
M  V30 9 C 36.6988 -2.029 18.5255 0
M  V30 10 C 36.4676 -4.3418 17.8584 0 CFG=1
M  V30 11 C 30.8021 -3.1141 19.7895 0
M  V30 12 C 32.4949 -3.3783 23.5372 0
M  V30 13 O 36.4836 -0.9276 19.3075 0
M  V30 14 C 37.3368 -2.1284 17.3525 0
M  V30 15 C 35.25 -5.0918 17.3151 0
M  V30 16 C 37.3614 -3.5433 16.8377 0 CFG=2
M  V30 17 O 30.1897 -3.5832 20.7389 0
M  V30 18 O 30.2303 -2.6266 18.6523 0
M  V30 19 C 33.13 -2.6392 24.7192 0
M  V30 20 C 35.5447 0.0243 18.8209 0
M  V30 21 C 34.3623 -4.5414 16.3503 0
M  V30 22 C 34.9935 -6.3845 17.8225 0
M  V30 23 N 37.044 -3.6773 15.4157 0
M  V30 24 C 38.8003 -4.0953 16.8419 0
M  V30 25 C 31.1578 -2.0231 17.7484 0
M  V30 26 C 32.1378 -2.0315 25.7316 0
M  V30 27 C 33.2518 -5.2838 15.9026 0
M  V30 28 C 34.5779 -3.1572 15.7949 0
M  V30 29 C 33.8932 -7.0752 17.3623 0
M  V30 30 C 35.8283 -3.0386 14.9138 0
M  V30 31 C 38.2281 -3.3412 14.6242 0
M  V30 32 C 39.4142 -3.6052 15.5395 0
M  V30 33 O 31.4279 -3.1222 26.3361 0
M  V30 34 C 32.8485 -1.2933 26.867 0
M  V30 35 C 31.107 -1.1163 25.0677 0
M  V30 36 C 33.0462 -6.5395 16.4276 0
M  V30 37 O 33.5064 -8.3146 17.7653 0
M  V30 38 O 32.017 -7.3725 16.1187 0
M  V30 39 C 32.3179 -8.4998 16.9681 0
M  V30 END ATOM
M  V30 BEGIN BOND
M  V30 1 2 1 2
M  V30 2 1 2 3
M  V30 3 1 2 4
M  V30 4 1 3 5
M  V30 5 1 4 6
M  V30 6 1 4 7
M  V30 7 1 4 8
M  V30 8 1 5 9
M  V30 9 1 5 10
M  V30 10 1 7 11
M  V30 11 1 8 12
M  V30 12 1 9 13
M  V30 13 2 9 14
M  V30 14 1 10 15
M  V30 15 1 10 16
M  V30 16 2 11 17
M  V30 17 1 11 18
M  V30 18 1 12 19
M  V30 19 1 13 20
M  V30 20 2 15 21
M  V30 21 1 15 22
M  V30 22 1 16 23
M  V30 23 1 16 24
M  V30 24 1 18 25
M  V30 25 1 19 26
M  V30 26 1 21 27
M  V30 27 1 21 28
M  V30 28 2 22 29
M  V30 29 1 23 30
M  V30 30 1 23 31
M  V30 31 1 24 32
M  V30 32 1 26 33
M  V30 33 1 26 34
M  V30 34 1 26 35
M  V30 35 2 27 36
M  V30 36 1 29 37
M  V30 37 1 36 38
M  V30 38 1 37 39
M  V30 39 1 14 16
M  V30 40 1 28 30
M  V30 41 1 29 36
M  V30 42 1 31 32
M  V30 43 1 38 39
M  V30 END BOND
M  V30 BEGIN COLLECTION
M  V30 MDLV30/STEABS ATOMS=(4 4 5 10 16)
M  V30 END COLLECTION
M  V30 END CTAB
M  END
>  <Molecule Name>
ZINC000026011099

>  <minimizedAffinity>
-7.51965

$$$$
ZINC000003813078
Actelion Java MolfileCreator 2.0

  0  0  0  0  0  0              0 V3000
M  V30 BEGIN CTAB
M  V30 COUNTS 25 26 0 0 0
M  V30 BEGIN ATOM
M  V30 1 O 32.9452 -3.5023 20.0169 0
M  V30 2 C 32.2137 -3.2708 20.9633 0
M  V30 3 O 30.8982 -3.5572 20.8959 0
M  V30 4 C 32.5872 -2.6773 22.2946 0
M  V30 5 C 33.7174 -3.4598 22.9638 0
M  V30 6 C 33.7562 -3.2891 24.4845 0
M  V30 7 C 32.3914 -3.1639 25.101 0
M  V30 8 C 32.1497 -2.7316 26.3458 0
M  V30 9 O 33.1657 -2.2991 27.1819 0
M  V30 10 C 30.7896 -2.5709 26.9424 0
M  V30 11 C 32.5326 -1.8043 28.3739 0 CFG=2
M  V30 12 C 31.0666 -1.564 28.0312 0 CFG=1
M  V30 13 C 33.1252 -0.4462 28.7538 0
M  V30 14 C 31.0399 -0.0944 27.5848 0 CFG=2
M  V30 15 C 31.9768 0.5535 28.6129 0 CFG=2
M  V30 16 C 29.6474 0.4863 27.5964 0
M  V30 17 O 32.4674 1.8122 28.1821 0
M  V30 18 C 28.6034 -0.1092 28.1958 0
M  V30 19 C 27.2137 0.4567 28.2451 0 CFG=1
M  V30 20 O 27.1683 1.5753 27.3691 0
M  V30 21 C 26.1255 -0.5502 27.8491 0
M  V30 22 C 26.3453 -1.2279 26.4893 0
M  V30 23 C 27.0807 -2.5612 26.6527 0
M  V30 24 C 26.6755 -3.3258 27.9148 0
M  V30 25 C 27.8261 -4.0774 28.5654 0
M  V30 END ATOM
M  V30 BEGIN BOND
M  V30 1 2 1 2
M  V30 2 1 2 3
M  V30 3 1 2 4
M  V30 4 1 4 5
M  V30 5 1 5 6
M  V30 6 1 6 7
M  V30 7 2 7 8
M  V30 8 1 8 9
M  V30 9 1 8 10
M  V30 10 1 9 11
M  V30 11 1 10 12
M  V30 12 1 11 13
M  V30 13 1 12 14
M  V30 14 1 13 15
M  V30 15 1 14 16
M  V30 16 1 15 17
M  V30 17 2 16 18
M  V30 18 1 18 19
M  V30 19 1 19 20
M  V30 20 1 19 21
M  V30 21 1 21 22
M  V30 22 1 22 23
M  V30 23 1 23 24
M  V30 24 1 24 25
M  V30 25 1 11 12
M  V30 26 1 14 15
M  V30 END BOND
M  V30 BEGIN COLLECTION
M  V30 MDLV30/STEABS ATOMS=(5 11 12 14 15 19)
M  V30 END COLLECTION
M  V30 END CTAB
M  END
>  <Molecule Name>
ZINC000003813078

>  <minimizedAffinity>
-7.51289

$$$$
ZINC000003831404
Actelion Java MolfileCreator 2.0

  0  0  0  0  0  0              0 V3000
M  V30 BEGIN CTAB
M  V30 COUNTS 24 27 0 0 0
M  V30 BEGIN ATOM
M  V30 1 O 27.9342 -4.9077 28.674 0
M  V30 2 C 27.5468 -3.6327 28.3699 0
M  V30 3 C 27.5263 -5.4201 29.9367 0
M  V30 4 C 28.5805 -2.7875 27.9561 0
M  V30 5 C 26.2559 -3.1309 28.436 0
M  V30 6 C 28.3531 -1.432 27.6044 0
M  V30 7 C 26.0132 -1.7996 28.0837 0
M  V30 8 C 27.0258 -0.9468 27.6689 0
M  V30 9 C 29.37 -0.5242 27.1803 0
M  V30 10 N 26.6851 0.3066 27.3392 0
M  V30 11 C 28.9877 0.774 26.8223 0
M  V30 12 C 30.8269 -0.9627 27.072 0 CFG=1
M  V30 13 C 27.6596 1.1374 26.9259 0
M  V30 14 O 31.1471 -1.1347 25.6819 0
M  V30 15 C 31.9271 -0.0444 27.712 0 CFG=1
M  V30 16 N 31.4201 0.9832 28.6733 0 CFG=2
M  V30 17 C 33.047 -0.8956 28.3726 0
M  V30 18 C 32.5414 1.9015 29.0004 0
M  V30 19 C 30.9578 0.3414 29.9226 0
M  V30 20 C 33.368 -0.3419 29.7732 0 CFG=1
M  V30 21 C 33.7147 1.165 29.6975 0 CFG=1
M  V30 22 C 32.0733 -0.4711 30.5966 0
M  V30 23 C 35.0351 1.4228 29.01 0
M  V30 24 C 35.1769 2.1999 27.9284 0
M  V30 END ATOM
M  V30 BEGIN BOND
M  V30 1 1 1 2
M  V30 2 1 1 3
M  V30 3 2 2 4
M  V30 4 1 2 5
M  V30 5 1 4 6
M  V30 6 2 5 7
M  V30 7 1 6 8
M  V30 8 2 6 9
M  V30 9 2 8 10
M  V30 10 1 9 11
M  V30 11 1 9 12
M  V30 12 1 10 13
M  V30 13 1 12 14
M  V30 14 1 12 15
M  V30 15 1 15 16
M  V30 16 1 15 17
M  V30 17 1 16 18
M  V30 18 1 16 19
M  V30 19 1 17 20
M  V30 20 1 18 21
M  V30 21 1 19 22
M  V30 22 1 21 23
M  V30 23 2 23 24
M  V30 24 1 7 8
M  V30 25 2 11 13
M  V30 26 1 20 21
M  V30 27 1 20 22
M  V30 END BOND
M  V30 BEGIN COLLECTION
M  V30 MDLV30/STEABS ATOMS=(5 12 15 16 20 21)
M  V30 END COLLECTION
M  V30 END CTAB
M  END
>  <Molecule Name>
ZINC000003831404

>  <minimizedAffinity>
-7.47592

$$$$
ZINC000003881958
Actelion Java MolfileCreator 2.0

  0  0  0  0  0  0              0 V3000
M  V30 BEGIN CTAB
M  V30 COUNTS 25 29 0 0 0
M  V30 BEGIN ATOM
M  V30 1 O 24.9869 -2.4152 27.8201 0
M  V30 2 N 24.9915 -3.696 28.3572 0
M  V30 3 C 26.2687 -1.9531 27.713 0
M  V30 4 C 26.2764 -3.9842 28.5765 0
M  V30 5 C 27.1147 -2.9288 28.1922 0
M  V30 6 C 26.6879 -0.7094 27.1937 0
M  V30 7 C 28.5807 -2.7325 28.2674 0
M  V30 8 C 28.0084 -0.5173 26.9822 0
M  V30 9 C 29.0961 -1.5897 27.2979 0 CFG=1
M  V30 10 C 28.4807 0.7642 26.3394 0
M  V30 11 C 30.3374 -0.8948 27.9784 0 CFG=2
M  V30 12 C 29.4721 -2.2537 25.9501 0
M  V30 13 C 29.652 1.3823 27.0902 0
M  V30 14 C 30.8127 0.3879 27.2272 0 CFG=1
M  V30 15 C 31.5156 -1.867 28.2638 0
M  V30 16 C 31.9863 1.0096 27.9966 0 CFG=1
M  V30 17 C 32.7223 -1.184 28.9336 0
M  V30 18 C 33.19 0.0528 28.1446 0 CFG=2
M  V30 19 C 32.6143 2.295 27.4603 0
M  V30 20 C 34.2178 0.9964 28.8454 0 CFG=2
M  V30 21 C 33.7685 -0.4273 26.7803 0
M  V30 22 C 34.0211 2.3427 28.0935 0
M  V30 23 O 35.552 0.5253 28.7239 0
M  V30 24 C 33.9594 1.1914 30.2882 0
M  V30 25 C 33.7335 1.3514 31.4575 0
M  V30 END ATOM
M  V30 BEGIN BOND
M  V30 1 1 1 2
M  V30 2 1 1 3
M  V30 3 2 2 4
M  V30 4 2 3 5
M  V30 5 1 3 6
M  V30 6 1 5 7
M  V30 7 2 6 8
M  V30 8 1 7 9
M  V30 9 1 8 10
M  V30 10 1 9 11
M  V30 11 1 9 12
M  V30 12 1 10 13
M  V30 13 1 11 14
M  V30 14 1 11 15
M  V30 15 1 14 16
M  V30 16 1 15 17
M  V30 17 1 16 18
M  V30 18 1 16 19
M  V30 19 1 18 20
M  V30 20 1 18 21
M  V30 21 1 19 22
M  V30 22 1 20 23
M  V30 23 1 20 24
M  V30 24 3 24 25
M  V30 25 1 4 5
M  V30 26 1 8 9
M  V30 27 1 13 14
M  V30 28 1 17 18
M  V30 29 1 20 22
M  V30 END BOND
M  V30 BEGIN COLLECTION
M  V30 MDLV30/STEABS ATOMS=(6 9 11 14 16 18 20)
M  V30 END COLLECTION
M  V30 END CTAB
M  END
>  <Molecule Name>
ZINC000003881958

>  <minimizedAffinity>
-7.42722

$$$$
ZINC000003830713
Actelion Java MolfileCreator 2.0

  0  0  0  0  0  0              0 V3000
M  V30 BEGIN CTAB
M  V30 COUNTS 25 25 0 0 0
M  V30 BEGIN ATOM
M  V30 1 O 25.5265 -0.642 28.4208 0
M  V30 2 C 26.4542 -1.4075 28.1862 0
M  V30 3 C 27.8815 -0.9651 27.9358 0 CFG=1
M  V30 4 C 26.2879 -2.8995 28.1359 0
M  V30 5 C 28.502 -2.2632 27.3846 0 CFG=2
M  V30 6 C 27.9236 0.2307 26.983 0
M  V30 7 C 27.732 -3.3772 28.1194 0 CFG=2
M  V30 8 C 29.9903 -2.3581 27.629 0
M  V30 9 C 28.0112 1.5562 27.6868 0
M  V30 10 O 27.8414 -4.6063 27.4149 0
M  V30 11 C 30.8986 -2.488 26.6481 0
M  V30 12 C 29.0739 2.0501 28.3423 0
M  V30 13 C 32.3801 -2.5757 26.8721 0 CFG=1
M  V30 14 C 30.4278 1.4134 28.4781 0
M  V30 15 O 32.918 -3.3997 25.8455 0
M  V30 16 C 33.0327 -1.1908 26.8118 0
M  V30 17 C 30.5823 0.7304 29.8365 0
M  V30 18 C 32.2652 -0.2332 25.8935 0
M  V30 19 C 31.9629 0.1028 29.984 0
M  V30 20 C 32.8701 1.1717 25.9274 0
M  V30 21 C 32.8788 1.0065 30.7566 0
M  V30 22 C 33.8927 1.3098 27.0551 0
M  V30 23 O 34.071 1.1666 30.5607 0
M  V30 24 O 32.2493 1.6598 31.7518 0
M  V30 25 C 33.9147 2.7225 27.6172 0
M  V30 END ATOM
M  V30 BEGIN BOND
M  V30 1 2 1 2
M  V30 2 1 2 3
M  V30 3 1 2 4
M  V30 4 1 3 5
M  V30 5 1 3 6
M  V30 6 1 4 7
M  V30 7 1 5 8
M  V30 8 1 6 9
M  V30 9 1 7 10
M  V30 10 2 8 11
M  V30 11 2 9 12
M  V30 12 1 11 13
M  V30 13 1 12 14
M  V30 14 1 13 15
M  V30 15 1 13 16
M  V30 16 1 14 17
M  V30 17 1 16 18
M  V30 18 1 17 19
M  V30 19 1 18 20
M  V30 20 1 19 21
M  V30 21 1 20 22
M  V30 22 2 21 23
M  V30 23 1 21 24
M  V30 24 1 22 25
M  V30 25 1 5 7
M  V30 END BOND
M  V30 BEGIN COLLECTION
M  V30 MDLV30/STEABS ATOMS=(4 3 5 7 13)
M  V30 END COLLECTION
M  V30 END CTAB
M  END
>  <Molecule Name>
ZINC000003830713

>  <minimizedAffinity>
-7.42184

$$$$
ZINC000003813088
Actelion Java MolfileCreator 2.0

  0  0  0  0  0  0              0 V3000
M  V30 BEGIN CTAB
M  V30 COUNTS 25 25 0 0 0
M  V30 BEGIN ATOM
M  V30 1 O 26.8354 -0.0923 26.3655 0
M  V30 2 C 27.5986 -0.8746 26.9198 0
M  V30 3 C 29.0642 -0.5903 27.1875 0 CFG=1
M  V30 4 C 27.1647 -2.2229 27.4199 0
M  V30 5 C 29.5712 -1.9904 27.5881 0 CFG=2
M  V30 6 C 29.7365 0.0426 25.9621 0
M  V30 7 C 28.3538 -2.6424 28.2704 0 CFG=2
M  V30 8 C 30.7671 -1.9312 28.5127 0
M  V30 9 C 30.3366 -0.9761 24.9946 0
M  V30 10 O 28.4864 -4.0569 28.2788 0
M  V30 11 C 31.4313 -0.7982 28.7954 0
M  V30 12 C 31.8086 -0.6957 24.6881 0
M  V30 13 C 32.5517 -0.6944 29.7884 0 CFG=1
M  V30 14 C 32.7084 -1.6652 25.4599 0
M  V30 15 O 33.6483 -1.4431 29.2836 0
M  V30 16 C 32.9644 0.7702 29.9737 0
M  V30 17 C 32.5223 -3.1089 24.987 0
M  V30 18 C 34.4734 0.9776 29.8141 0
M  V30 19 C 33.4779 -3.4762 23.8516 0
M  V30 20 C 34.7861 1.7718 28.5434 0
M  V30 21 C 32.7959 -3.5767 22.5129 0
M  V30 22 C 33.5081 2.2578 27.8611 0
M  V30 23 O 32.8174 -2.7662 21.6034 0
M  V30 24 O 32.0783 -4.7121 22.4 0
M  V30 25 C 33.5502 2.0124 26.3613 0
M  V30 END ATOM
M  V30 BEGIN BOND
M  V30 1 2 1 2
M  V30 2 1 2 3
M  V30 3 1 2 4
M  V30 4 1 3 5
M  V30 5 1 3 6
M  V30 6 1 4 7
M  V30 7 1 5 8
M  V30 8 1 6 9
M  V30 9 1 7 10
M  V30 10 2 8 11
M  V30 11 1 9 12
M  V30 12 1 11 13
M  V30 13 1 12 14
M  V30 14 1 13 15
M  V30 15 1 13 16
M  V30 16 1 14 17
M  V30 17 1 16 18
M  V30 18 1 17 19
M  V30 19 1 18 20
M  V30 20 1 19 21
M  V30 21 1 20 22
M  V30 22 2 21 23
M  V30 23 1 21 24
M  V30 24 1 22 25
M  V30 25 1 5 7
M  V30 END BOND
M  V30 BEGIN COLLECTION
M  V30 MDLV30/STEABS ATOMS=(4 3 5 7 13)
M  V30 END COLLECTION
M  V30 END CTAB
M  END
>  <Molecule Name>
ZINC000003813088

>  <minimizedAffinity>
-7.34470

$$$$
ZINC000004474414
Actelion Java MolfileCreator 2.0

  0  0  0  0  0  0              0 V3000
M  V30 BEGIN CTAB
M  V30 COUNTS 29 31 0 0 0
M  V30 BEGIN ATOM
M  V30 1 O 31.081 -3.0141 26.7667 0
M  V30 2 C 31.1802 -1.5892 26.8955 0
M  V30 3 C 30.6821 -0.9724 25.5721 0
M  V30 4 C 30.3252 -1.172 28.0941 0
M  V30 5 C 32.6536 -1.2778 27.1616 0
M  V30 6 C 31.7601 -0.7332 24.5093 0
M  V30 7 C 31.692 -1.8026 23.4078 0
M  V30 8 C 33.0743 -2.4013 23.0619 0 CFG=2
M  V30 9 C 33.147 -3.1727 21.7148 0 CFG=2
M  V30 10 C 33.524 -3.339 24.1979 0
M  V30 11 C 34.2351 -2.749 20.6852 0 CFG=2
M  V30 12 C 31.8483 -3.2417 20.8773 0
M  V30 13 C 33.8041 -3.6313 19.4833 0 CFG=1
M  V30 14 C 35.6682 -3.1524 21.0933 0
M  V30 15 C 34.1978 -1.2385 20.3608 0
M  V30 16 C 32.2896 -3.4081 19.4101 0
M  V30 17 C 34.7195 -3.4408 18.291 0
M  V30 18 C 36.6491 -3.0598 19.9127 0
M  V30 19 C 34.2777 -3.0371 17.084 0
M  V30 20 C 36.1561 -3.789 18.6524 0
M  V30 21 C 35.0725 -2.8199 15.8908 0
M  V30 22 C 36.0222 -1.8782 15.716 0
M  V30 23 C 36.4129 -0.8524 16.6815 0
M  V30 24 C 36.8491 -1.8309 14.4473 0
M  V30 25 C 35.5495 0.0515 17.1701 0
M  V30 26 C 37.8848 -0.8355 17.019 0
M  V30 27 C 38.3542 -1.8472 14.7522 0 CFG=2
M  V30 28 C 38.7379 -0.754 15.7538 0
M  V30 29 O 39.0997 -1.6694 13.5484 0
M  V30 END ATOM
M  V30 BEGIN BOND
M  V30 1 1 1 2
M  V30 2 1 2 3
M  V30 3 1 2 4
M  V30 4 1 2 5
M  V30 5 1 3 6
M  V30 6 1 6 7
M  V30 7 1 7 8
M  V30 8 1 8 9
M  V30 9 1 8 10
M  V30 10 1 9 11
M  V30 11 1 9 12
M  V30 12 1 11 13
M  V30 13 1 11 14
M  V30 14 1 11 15
M  V30 15 1 12 16
M  V30 16 1 13 17
M  V30 17 1 14 18
M  V30 18 2 17 19
M  V30 19 1 17 20
M  V30 20 1 19 21
M  V30 21 2 21 22
M  V30 22 1 22 23
M  V30 23 1 22 24
M  V30 24 2 23 25
M  V30 25 1 23 26
M  V30 26 1 24 27
M  V30 27 1 26 28
M  V30 28 1 27 29
M  V30 29 1 13 16
M  V30 30 1 18 20
M  V30 31 1 27 28
M  V30 END BOND
M  V30 BEGIN COLLECTION
M  V30 MDLV30/STEABS ATOMS=(5 8 9 11 13 27)
M  V30 END COLLECTION
M  V30 END CTAB
M  END
>  <Molecule Name>
ZINC000004474414

>  <minimizedAffinity>
-7.31526

$$$$
ZINC000003977981
Actelion Java MolfileCreator 2.0

  0  0  0  0  0  0              0 V3000
M  V30 BEGIN CTAB
M  V30 COUNTS 32 36 0 0 0
M  V30 BEGIN ATOM
M  V30 1 F 33.969 -1.8519 18.06 0
M  V30 2 C 34.5395 -3.1105 18.1754 0 CFG=2
M  V30 3 C 33.4622 -4.0153 18.9055 0 CFG=2
M  V30 4 C 35.8679 -2.872 18.9592 0 CFG=1
M  V30 5 C 34.8027 -3.5861 16.7065 0 CFG=2
M  V30 6 C 32.2091 -4.0674 18.0123 0
M  V30 7 C 33.1222 -3.4478 20.2837 0
M  V30 8 C 33.9273 -5.4692 19.1508 0
M  V30 9 O 36.4808 -4.0919 19.361 0
M  V30 10 C 36.8952 -2.0169 18.179 0
M  V30 11 C 35.7813 -2.6085 16.0391 0 CFG=1
M  V30 12 C 33.4889 -3.6622 15.9102 0
M  V30 13 C 30.9848 -3.6848 18.4196 0
M  V30 14 C 32.4429 -4.5298 16.5975 0 CFG=2
M  V30 15 C 31.9009 -3.0676 20.6827 0
M  V30 16 C 37.1548 -2.5259 16.7458 0 CFG=1
M  V30 17 C 36.1483 -2.8129 14.5704 0
M  V30 18 C 30.7385 -3.1707 19.7807 0
M  V30 19 F 31.3003 -4.4658 15.8554 0
M  V30 20 C 37.8914 -1.5367 15.7859 0 CFG=1
M  V30 21 C 37.9045 -3.8853 16.777 0
M  V30 22 C 37.4208 -1.9591 14.3842 0 CFG=2
M  V30 23 O 29.6177 -2.8443 20.1497 0
M  V30 24 O 37.4063 -0.1996 15.9386 0
M  V30 25 C 39.4197 -1.5543 15.9301 0
M  V30 26 O 37.103 -0.759 13.6827 0
M  V30 27 C 37.1441 0.3074 14.6255 0
M  V30 28 O 40.1564 -2.1904 15.1698 0
M  V30 29 C 40.0197 -0.7606 17.085 0
M  V30 30 C 38.2587 1.2683 14.2214 0
M  V30 31 C 35.8002 1.0253 14.6321 0
M  V30 32 O 40.2102 -1.5814 18.2292 0
M  V30 END ATOM
M  V30 BEGIN BOND
M  V30 1 1 1 2
M  V30 2 1 2 3
M  V30 3 1 2 4
M  V30 4 1 2 5
M  V30 5 1 3 6
M  V30 6 1 3 7
M  V30 7 1 3 8
M  V30 8 1 4 9
M  V30 9 1 4 10
M  V30 10 1 5 11
M  V30 11 1 5 12
M  V30 12 2 6 13
M  V30 13 1 6 14
M  V30 14 2 7 15
M  V30 15 1 10 16
M  V30 16 1 11 17
M  V30 17 1 13 18
M  V30 18 1 14 19
M  V30 19 1 16 20
M  V30 20 1 16 21
M  V30 21 1 17 22
M  V30 22 2 18 23
M  V30 23 1 20 24
M  V30 24 1 20 25
M  V30 25 1 22 26
M  V30 26 1 24 27
M  V30 27 2 25 28
M  V30 28 1 25 29
M  V30 29 1 27 30
M  V30 30 1 27 31
M  V30 31 1 29 32
M  V30 32 1 11 16
M  V30 33 1 12 14
M  V30 34 1 15 18
M  V30 35 1 20 22
M  V30 36 1 26 27
M  V30 END BOND
M  V30 BEGIN COLLECTION
M  V30 MDLV30/STEABS ATOMS=(9 2 3 4 5 11 14 16 20 22)
M  V30 END COLLECTION
M  V30 END CTAB
M  END
>  <Molecule Name>
ZINC000003977981

>  <minimizedAffinity>
-7.29876

$$$$
ZINC000004474603
Actelion Java MolfileCreator 2.0

  0  0  0  0  0  0              0 V3000
M  V30 BEGIN CTAB
M  V30 COUNTS 22 21 0 0 0
M  V30 BEGIN ATOM
M  V30 1 O 27.1987 -3.622 27.0145 0
M  V30 2 C 26.4564 -2.9868 27.7425 0
M  V30 3 O 25.362 -3.5648 28.2768 0
M  V30 4 C 26.5922 -1.55 28.1676 0
M  V30 5 C 26.8361 -0.6286 26.9741 0
M  V30 6 C 27.0631 0.8141 27.4271 0
M  V30 7 C 28.3951 1.3254 26.9579 0
M  V30 8 C 29.4944 1.5534 27.6962 0
M  V30 9 C 29.6734 1.368 29.176 0
M  V30 10 C 30.9286 0.5961 29.467 0
M  V30 11 C 31.1456 -0.7217 29.3144 0
M  V30 12 C 30.1884 -1.7675 28.8193 0
M  V30 13 C 30.8251 -2.6155 27.7556 0
M  V30 14 C 30.8004 -2.4355 26.4233 0
M  V30 15 C 30.1218 -1.3406 25.6518 0
M  V30 16 C 31.0638 -0.7019 24.6713 0
M  V30 17 C 32.2033 -0.0416 24.9399 0
M  V30 18 C 32.7953 0.2547 26.2885 0
M  V30 19 C 32.8716 1.7377 26.518 0
M  V30 20 C 33.7792 2.42 27.2359 0
M  V30 21 C 34.9418 1.8684 28.0092 0
M  V30 22 C 34.5168 1.4193 29.3986 0
M  V30 END ATOM
M  V30 BEGIN BOND
M  V30 1 2 1 2
M  V30 2 1 2 3
M  V30 3 1 2 4
M  V30 4 1 4 5
M  V30 5 1 5 6
M  V30 6 1 6 7
M  V30 7 2 7 8
M  V30 8 1 8 9
M  V30 9 1 9 10
M  V30 10 2 10 11
M  V30 11 1 11 12
M  V30 12 1 12 13
M  V30 13 2 13 14
M  V30 14 1 14 15
M  V30 15 1 15 16
M  V30 16 2 16 17
M  V30 17 1 17 18
M  V30 18 1 18 19
M  V30 19 2 19 20
M  V30 20 1 20 21
M  V30 21 1 21 22
M  V30 END BOND
M  V30 END CTAB
M  END
>  <Molecule Name>
ZINC000004474603

>  <minimizedAffinity>
-7.29307

$$$$
ZINC000004474460
Actelion Java MolfileCreator 2.0

  0  0  0  0  0  0              0 V3000
M  V30 BEGIN CTAB
M  V30 COUNTS 28 30 0 0 0
M  V30 BEGIN ATOM
M  V30 1 O 35.3685 -3.7747 17.5359 0
M  V30 2 C 34.4278 -3.097 18.368 0 CFG=2
M  V30 3 C 34.2551 -3.8536 19.693 0
M  V30 4 C 33.0985 -2.9569 17.6218 0
M  V30 5 C 33.1621 -3.2433 20.5463 0
M  V30 6 C 32.0236 -2.3364 18.5132 0
M  V30 7 C 31.904 -3.0836 19.82 0
M  V30 8 C 33.4032 -2.8684 21.8193 0
M  V30 9 C 30.7496 -3.623 20.2402 0
M  V30 10 C 32.4824 -2.1911 22.7115 0
M  V30 11 C 32.1551 -2.5516 23.9681 0
M  V30 12 C 31.1814 -1.7688 24.8281 0 CFG=1
M  V30 13 C 32.6645 -3.7759 24.7076 0
M  V30 14 C 31.8203 -1.2886 26.1641 0 CFG=1
M  V30 15 C 30.4784 -0.5206 24.3051 0
M  V30 16 C 33.2264 -3.4275 26.0911 0
M  V30 17 C 30.6022 -0.5392 26.7933 0 CFG=2
M  V30 18 C 32.2803 -2.5514 26.9282 0
M  V30 19 C 33.0171 -0.3321 25.9422 0
M  V30 20 C 29.9434 0.1611 25.5686 0
M  V30 21 C 30.8296 0.4516 27.9753 0 CFG=1
M  V30 22 C 29.7455 1.5641 27.9574 0
M  V30 23 C 30.8369 -0.2557 29.3341 0
M  V30 24 C 28.4316 1.1714 28.6471 0
M  V30 25 C 27.3174 0.9432 27.6189 0
M  V30 26 C 26.5646 -0.3857 27.8143 0
M  V30 27 C 25.6903 -0.7445 26.6123 0
M  V30 28 C 27.5645 -1.5134 28.0804 0
M  V30 END ATOM
M  V30 BEGIN BOND
M  V30 1 1 1 2
M  V30 2 1 2 3
M  V30 3 1 2 4
M  V30 4 1 3 5
M  V30 5 1 4 6
M  V30 6 1 5 7
M  V30 7 2 5 8
M  V30 8 2 7 9
M  V30 9 1 8 10
M  V30 10 2 10 11
M  V30 11 1 11 12
M  V30 12 1 11 13
M  V30 13 1 12 14
M  V30 14 1 12 15
M  V30 15 1 13 16
M  V30 16 1 14 17
M  V30 17 1 14 18
M  V30 18 1 14 19
M  V30 19 1 15 20
M  V30 20 1 17 21
M  V30 21 1 21 22
M  V30 22 1 21 23
M  V30 23 1 22 24
M  V30 24 1 24 25
M  V30 25 1 25 26
M  V30 26 1 26 27
M  V30 27 1 26 28
M  V30 28 1 6 7
M  V30 29 1 16 18
M  V30 30 1 17 20
M  V30 END BOND
M  V30 BEGIN COLLECTION
M  V30 MDLV30/STEABS ATOMS=(5 2 12 14 17 21)
M  V30 END COLLECTION
M  V30 END CTAB
M  END
>  <Molecule Name>
ZINC000004474460

>  <minimizedAffinity>
-7.28279

$$$$
ZINC000003914809
Actelion Java MolfileCreator 2.0

  0  0  0  0  0  0              0 V3000
M  V30 BEGIN CTAB
M  V30 COUNTS 28 31 0 0 0
M  V30 BEGIN ATOM
M  V30 1 O 35.7084 -0.4745 19.9615 0
M  V30 2 C 36.154 -1.5545 20.3079 0
M  V30 3 O 37.4453 -1.6763 20.675 0
M  V30 4 C 35.4157 -2.8628 20.4136 0
M  V30 5 C 34.7131 -3.0046 21.767 0
M  V30 6 C 33.2242 -2.5632 21.7589 0 CFG=2
M  V30 7 C 32.5651 -2.8684 23.1383 0 CFG=2
M  V30 8 C 32.4816 -3.233 20.5986 0
M  V30 9 C 31.8997 -1.7157 23.9566 0 CFG=2
M  V30 10 C 33.5886 -3.4625 24.149 0
M  V30 11 C 31.7758 -2.412 25.3405 0 CFG=1
M  V30 12 C 30.473 -1.3354 23.5256 0
M  V30 13 C 32.8045 -0.4594 23.9747 0
M  V30 14 C 33.1517 -3.0264 25.5518 0
M  V30 15 C 31.1795 -1.506 26.4382 0 CFG=2
M  V30 16 C 29.7626 -0.4554 24.5669 0
M  V30 17 C 31.1386 -2.1977 27.8168 0 CFG=1
M  V30 18 C 29.7468 -1.0709 25.9872 0 CFG=2
M  V30 19 O 32.4585 -2.4253 28.3084 0
M  V30 20 C 30.3972 -1.3724 28.8688 0
M  V30 21 C 29.0192 -0.1789 27.0621 0 CFG=2
M  V30 22 C 28.9953 -0.9325 28.4316 0 CFG=1
M  V30 23 C 27.5515 0.159 26.665 0
M  V30 24 C 29.7425 1.1816 27.2349 0
M  V30 25 C 28.0297 -2.136 28.4362 0
M  V30 26 C 26.6206 -1.0471 26.6505 0
M  V30 27 C 26.6188 -1.748 28.0032 0 CFG=1
M  V30 28 O 25.8009 -2.9108 27.9375 0
M  V30 END ATOM
M  V30 BEGIN BOND
M  V30 1 2 1 2
M  V30 2 1 2 3
M  V30 3 1 2 4
M  V30 4 1 4 5
M  V30 5 1 5 6
M  V30 6 1 6 7
M  V30 7 1 6 8
M  V30 8 1 7 9
M  V30 9 1 7 10
M  V30 10 1 9 11
M  V30 11 1 9 12
M  V30 12 1 9 13
M  V30 13 1 10 14
M  V30 14 1 11 15
M  V30 15 1 12 16
M  V30 16 1 15 17
M  V30 17 1 15 18
M  V30 18 1 17 19
M  V30 19 1 17 20
M  V30 20 1 18 21
M  V30 21 1 20 22
M  V30 22 1 21 23
M  V30 23 1 21 24
M  V30 24 1 22 25
M  V30 25 1 23 26
M  V30 26 1 25 27
M  V30 27 1 27 28
M  V30 28 1 11 14
M  V30 29 1 16 18
M  V30 30 1 21 22
M  V30 31 1 26 27
M  V30 END BOND
M  V30 BEGIN COLLECTION
M  V30 MDLV30/STEABS ATOMS=(10 6 7 9 11 15 17 18 21 22 27)
M  V30 END COLLECTION
M  V30 END CTAB
M  END
>  <Molecule Name>
ZINC000003914809

>  <minimizedAffinity>
-7.21906

$$$$
ZINC000003875560
Actelion Java MolfileCreator 2.0

  0  0  0  0  0  0              0 V3000
M  V30 BEGIN CTAB
M  V30 COUNTS 27 30 0 0 0
M  V30 BEGIN ATOM
M  V30 1 O 25.1293 -3.9257 28.8345 0
M  V30 2 C 26.1008 -3.3756 28.3315 0
M  V30 3 C 26.1367 -1.9117 28.1308 0
M  V30 4 C 27.2812 -4.1443 27.9068 0
M  V30 5 C 27.1902 -1.2775 27.5797 0
M  V30 6 C 28.3349 -3.5302 27.3557 0
M  V30 7 C 28.4521 -2.031 27.1035 0 CFG=2
M  V30 8 C 27.2494 0.2386 27.4152 0 CFG=2
M  V30 9 C 29.6763 -1.4489 27.9093 0 CFG=1
M  V30 10 C 28.5636 -1.8697 25.5703 0
M  V30 11 C 28.4489 0.78 28.2053 0
M  V30 12 C 25.9873 1.0137 27.819 0
M  V30 13 C 31.0535 -2.1345 27.6602 0 CFG=1
M  V30 14 C 29.7776 0.1091 27.8091 0 CFG=1
M  V30 15 O 31.4195 -2.1943 26.2889 0
M  V30 16 C 32.2149 -1.5136 28.4666 0
M  V30 17 C 30.9141 0.5864 28.7298 0 CFG=1
M  V30 18 C 32.3087 0.0242 28.3604 0 CFG=1
M  V30 19 C 31.1617 2.0826 28.8734 0
M  V30 20 C 33.1775 0.7408 29.447 0 CFG=1
M  V30 21 C 32.793 0.4598 26.9516 0
M  V30 22 C 32.5659 2.1736 29.5013 0
M  V30 23 O 32.9654 0.1303 30.7251 0
M  V30 24 C 34.6966 0.7573 29.1708 0
M  V30 25 O 35.392 -0.2632 29.2115 0
M  V30 26 C 35.3422 2.0978 28.836 0
M  V30 27 O 35.9153 2.0782 27.5336 0
M  V30 END ATOM
M  V30 BEGIN BOND
M  V30 1 2 1 2
M  V30 2 1 2 3
M  V30 3 1 2 4
M  V30 4 2 3 5
M  V30 5 2 4 6
M  V30 6 1 5 7
M  V30 7 1 5 8
M  V30 8 1 7 9
M  V30 9 1 7 10
M  V30 10 1 8 11
M  V30 11 1 8 12
M  V30 12 1 9 13
M  V30 13 1 9 14
M  V30 14 1 13 15
M  V30 15 1 13 16
M  V30 16 1 14 17
M  V30 17 1 16 18
M  V30 18 1 17 19
M  V30 19 1 18 20
M  V30 20 1 18 21
M  V30 21 1 19 22
M  V30 22 1 20 23
M  V30 23 1 20 24
M  V30 24 2 24 25
M  V30 25 1 24 26
M  V30 26 1 26 27
M  V30 27 1 6 7
M  V30 28 1 11 14
M  V30 29 1 17 18
M  V30 30 1 20 22
M  V30 END BOND
M  V30 BEGIN COLLECTION
M  V30 MDLV30/STEABS ATOMS=(8 7 8 9 13 14 17 18 20)
M  V30 END COLLECTION
M  V30 END CTAB
M  END
>  <Molecule Name>
ZINC000003875560

>  <minimizedAffinity>
-7.17637

$$$$
ZINC000000083315
Actelion Java MolfileCreator 2.0

  0  0  0  0  0  0              0 V3000
M  V30 BEGIN CTAB
M  V30 COUNTS 15 16 0 0 0
M  V30 BEGIN ATOM
M  V30 1 O 25.7086 -1.1467 28.8532 0
M  V30 2 C 26.0625 -2.1662 28.2799 0
M  V30 3 O 25.3393 -3.2989 28.4002 0
M  V30 4 C 27.3226 -2.3509 27.4369 0 CFG=1
M  V30 5 N 27.2666 -3.6626 26.7448 0
M  V30 6 C 27.4137 -1.1586 26.4703 0
M  V30 7 C 28.4438 -0.143 26.8635 0
M  V30 8 C 29.8131 -0.1056 26.4451 0
M  V30 9 C 28.2542 0.9328 27.7097 0
M  V30 10 C 30.405 1.0035 27.0496 0
M  V30 11 C 30.6054 -0.9147 25.6049 0
M  V30 12 N 29.4374 1.6139 27.8118 0
M  V30 13 C 31.7483 1.3468 26.855 0
M  V30 14 C 31.9502 -0.586 25.399 0
M  V30 15 C 32.5107 0.5295 26.016 0
M  V30 END ATOM
M  V30 BEGIN BOND
M  V30 1 2 1 2
M  V30 2 1 2 3
M  V30 3 1 2 4
M  V30 4 1 4 5
M  V30 5 1 4 6
M  V30 6 1 6 7
M  V30 7 1 7 8
M  V30 8 2 7 9
M  V30 9 2 8 10
M  V30 10 1 8 11
M  V30 11 1 9 12
M  V30 12 1 10 13
M  V30 13 2 11 14
M  V30 14 2 13 15
M  V30 15 1 10 12
M  V30 16 1 14 15
M  V30 END BOND
M  V30 BEGIN COLLECTION
M  V30 MDLV30/STEABS ATOMS=(1 4)
M  V30 END COLLECTION
M  V30 END CTAB
M  END
>  <Molecule Name>
ZINC000000083315

>  <minimizedAffinity>
-7.13962

$$$$
ZINC000043450326
Actelion Java MolfileCreator 2.0

  0  0  0  0  0  0              0 V3000
M  V30 BEGIN CTAB
M  V30 COUNTS 39 43 0 0 0
M  V30 BEGIN ATOM
M  V30 1 O 35.6602 -5.7326 17.5401 0
M  V30 2 C 35.6429 -5.015 16.5449 0
M  V30 3 O 36.7316 -4.5551 15.8789 0
M  V30 4 C 34.3327 -4.5019 15.9164 0 CFG=1
M  V30 5 C 37.72 -3.8965 16.6795 0 CFG=2
M  V30 6 O 34.6636 -3.8541 14.6761 0
M  V30 7 C 33.4841 -5.7416 15.6178 0
M  V30 8 C 33.6921 -3.4705 16.8739 0
M  V30 9 C 38.4297 -4.8991 17.5546 0
M  V30 10 C 37.0185 -3.0276 17.7542 0 CFG=2
M  V30 11 C 34.1097 -6.6677 14.6161 0
M  V30 12 C 33.1944 -4.0377 18.2122 0
M  V30 13 O 38.7965 -6.0977 17.0125 0
M  V30 14 C 38.5971 -4.4236 18.799 0
M  V30 15 C 36.4802 -1.6623 17.366 0
M  V30 16 C 38.0463 -3.0158 18.9238 0 CFG=2
M  V30 17 O 34.5303 -6.3058 13.5243 0
M  V30 18 O 34.1435 -7.9426 15.0866 0
M  V30 19 C 32.2936 -3.0293 18.9328 0
M  V30 20 C 38.9248 -7.1827 17.9244 0
M  V30 21 C 35.8291 -0.8396 18.3309 0
M  V30 22 C 36.5867 -1.2051 16.0336 0
M  V30 23 N 37.5408 -2.8118 20.2884 0
M  V30 24 C 39.2144 -2.021 18.7794 0
M  V30 25 C 33.1358 -8.2351 16.0546 0
M  V30 26 C 30.7991 -3.0908 18.5567 0
M  V30 27 C 35.3194 0.4209 17.9365 0
M  V30 28 C 35.6037 -1.1896 19.7921 0
M  V30 29 C 36.0721 0.0298 15.7021 0
M  V30 30 C 36.1174 -2.505 20.4061 0
M  V30 31 C 38.4142 -1.8647 20.9932 0
M  V30 32 C 39.7096 -1.861 20.2053 0
M  V30 33 O 30.5797 -4.3385 17.8836 0
M  V30 34 C 29.8921 -3.0938 19.7878 0
M  V30 35 C 30.389 -1.9702 17.5984 0
M  V30 36 C 35.4559 0.8238 16.6287 0
M  V30 37 O 36.1023 0.5978 14.4673 0
M  V30 38 O 35.0171 1.9976 16.1033 0
M  V30 39 C 35.4242 1.8446 14.7273 0
M  V30 END ATOM
M  V30 BEGIN BOND
M  V30 1 2 1 2
M  V30 2 1 2 3
M  V30 3 1 2 4
M  V30 4 1 3 5
M  V30 5 1 4 6
M  V30 6 1 4 7
M  V30 7 1 4 8
M  V30 8 1 5 9
M  V30 9 1 5 10
M  V30 10 1 7 11
M  V30 11 1 8 12
M  V30 12 1 9 13
M  V30 13 2 9 14
M  V30 14 1 10 15
M  V30 15 1 10 16
M  V30 16 2 11 17
M  V30 17 1 11 18
M  V30 18 1 12 19
M  V30 19 1 13 20
M  V30 20 2 15 21
M  V30 21 1 15 22
M  V30 22 1 16 23
M  V30 23 1 16 24
M  V30 24 1 18 25
M  V30 25 1 19 26
M  V30 26 1 21 27
M  V30 27 1 21 28
M  V30 28 2 22 29
M  V30 29 1 23 30
M  V30 30 1 23 31
M  V30 31 1 24 32
M  V30 32 1 26 33
M  V30 33 1 26 34
M  V30 34 1 26 35
M  V30 35 2 27 36
M  V30 36 1 29 37
M  V30 37 1 36 38
M  V30 38 1 37 39
M  V30 39 1 14 16
M  V30 40 1 28 30
M  V30 41 1 29 36
M  V30 42 1 31 32
M  V30 43 1 38 39
M  V30 END BOND
M  V30 BEGIN COLLECTION
M  V30 MDLV30/STEABS ATOMS=(4 4 5 10 16)
M  V30 END COLLECTION
M  V30 END CTAB
M  END
>  <Molecule Name>
ZINC000043450326

>  <minimizedAffinity>
-7.10435

$$$$
ZINC000001530575
Actelion Java MolfileCreator 2.0

  0  0  0  0  0  0              0 V3000
M  V30 BEGIN CTAB
M  V30 COUNTS 22 22 0 0 0
M  V30 BEGIN ATOM
M  V30 1 O 28.0264 1.6181 26.2877 0
M  V30 2 C 27.7405 0.8432 27.1933 0
M  V30 3 N 28.3549 0.8683 28.4243 0
M  V30 4 C 26.6883 -0.2433 27.0821 0
M  V30 5 C 29.385 1.8342 28.7197 0
M  V30 6 C 26.9929 -1.443 27.9763 0
M  V30 7 C 30.7194 1.1567 28.8837 0
M  V30 8 C 27.8416 -2.4831 27.2387 0
M  V30 9 C 31.8246 1.5751 28.1203 0
M  V30 10 C 30.861 0.0706 29.7572 0
M  V30 11 C 29.1233 -2.853 27.9919 0
M  V30 12 C 33.0614 0.9323 28.2378 0
M  V30 13 C 32.0889 -0.5785 29.882 0
M  V30 14 C 30.3669 -2.3884 27.2885 0
M  V30 15 O 34.1913 1.2671 27.5389 0
M  V30 16 C 33.1778 -0.1465 29.125 0
M  V30 17 C 30.3644 -1.5361 26.2513 0
M  V30 18 C 34.989 2.3256 28.0491 0
M  V30 19 O 34.3839 -0.7857 29.2456 0
M  V30 20 C 31.6117 -1.0741 25.5395 0
M  V30 21 C 32.7781 -2.0075 25.8625 0
M  V30 22 C 31.3691 -1.0164 24.0319 0
M  V30 END ATOM
M  V30 BEGIN BOND
M  V30 1 2 1 2
M  V30 2 1 2 3
M  V30 3 1 2 4
M  V30 4 1 3 5
M  V30 5 1 4 6
M  V30 6 1 5 7
M  V30 7 1 6 8
M  V30 8 2 7 9
M  V30 9 1 7 10
M  V30 10 1 8 11
M  V30 11 1 9 12
M  V30 12 2 10 13
M  V30 13 1 11 14
M  V30 14 1 12 15
M  V30 15 2 12 16
M  V30 16 2 14 17
M  V30 17 1 15 18
M  V30 18 1 16 19
M  V30 19 1 17 20
M  V30 20 1 20 21
M  V30 21 1 20 22
M  V30 22 1 13 16
M  V30 END BOND
M  V30 END CTAB
M  END
>  <Molecule Name>
ZINC000001530575

>  <minimizedAffinity>
-7.10077

$$$$
ZINC000043450324
Actelion Java MolfileCreator 2.0

  0  0  0  0  0  0              0 V3000
M  V30 BEGIN CTAB
M  V30 COUNTS 39 43 0 0 0
M  V30 BEGIN ATOM
M  V30 1 O 35.6933 -3.0939 21.7011 0
M  V30 2 C 34.9608 -2.9253 20.7319 0
M  V30 3 O 35.3598 -2.4446 19.5264 0
M  V30 4 C 33.4417 -3.216 20.7431 0 CFG=2
M  V30 5 C 36.4988 -3.0782 18.9405 0 CFG=2
M  V30 6 O 33.1611 -4.6189 20.7852 0
M  V30 7 C 32.9213 -2.616 19.4261 0
M  V30 8 C 32.8116 -2.5576 21.9938 0
M  V30 9 C 37.6949 -2.1661 18.978 0
M  V30 10 C 36.2846 -3.2009 17.4127 0 CFG=2
M  V30 11 C 31.6944 -3.3163 18.9102 0
M  V30 12 C 32.7747 -3.4904 23.2176 0
M  V30 13 O 37.9437 -1.4576 20.1188 0
M  V30 14 C 38.3675 -2.2023 17.8163 0
M  V30 15 C 35.3795 -4.3153 16.9147 0
M  V30 16 C 37.7315 -3.1759 16.8288 0 CFG=2
M  V30 17 O 31.5931 -3.7953 17.7878 0
M  V30 18 O 30.7135 -3.3056 19.8524 0
M  V30 19 C 33.3575 -2.8029 24.4568 0
M  V30 20 C 39.1192 -1.8154 20.8355 0
M  V30 21 C 35.0093 -4.3142 15.5402 0
M  V30 22 C 34.8647 -5.3128 17.7628 0
M  V30 23 N 37.92 -2.7083 15.4343 0
M  V30 24 C 38.5014 -4.5051 16.8683 0
M  V30 25 C 29.4209 -2.9691 19.3459 0
M  V30 26 C 32.3205 -2.1561 25.3988 0
M  V30 27 C 34.1398 -5.2984 15.0357 0
M  V30 28 C 35.5496 -3.2567 14.6027 0
M  V30 29 C 34.0166 -6.2604 17.2276 0
M  V30 30 C 37.0676 -3.3713 14.4201 0
M  V30 31 C 39.3328 -3.0319 15.124 0
M  V30 32 C 39.6765 -4.2896 15.9178 0
M  V30 33 O 31.5188 -3.2129 25.9451 0
M  V30 34 C 32.97 -1.4404 26.5832 0
M  V30 35 C 31.3788 -1.2072 24.6529 0
M  V30 36 C 33.663 -6.2535 15.9033 0
M  V30 37 O 33.4384 -7.2833 17.9128 0
M  V30 38 O 32.8171 -7.2686 15.5833 0
M  V30 39 C 32.663 -7.9058 16.8679 0
M  V30 END ATOM
M  V30 BEGIN BOND
M  V30 1 2 1 2
M  V30 2 1 2 3
M  V30 3 1 2 4
M  V30 4 1 3 5
M  V30 5 1 4 6
M  V30 6 1 4 7
M  V30 7 1 4 8
M  V30 8 1 5 9
M  V30 9 1 5 10
M  V30 10 1 7 11
M  V30 11 1 8 12
M  V30 12 1 9 13
M  V30 13 2 9 14
M  V30 14 1 10 15
M  V30 15 1 10 16
M  V30 16 2 11 17
M  V30 17 1 11 18
M  V30 18 1 12 19
M  V30 19 1 13 20
M  V30 20 2 15 21
M  V30 21 1 15 22
M  V30 22 1 16 23
M  V30 23 1 16 24
M  V30 24 1 18 25
M  V30 25 1 19 26
M  V30 26 1 21 27
M  V30 27 1 21 28
M  V30 28 2 22 29
M  V30 29 1 23 30
M  V30 30 1 23 31
M  V30 31 1 24 32
M  V30 32 1 26 33
M  V30 33 1 26 34
M  V30 34 1 26 35
M  V30 35 2 27 36
M  V30 36 1 29 37
M  V30 37 1 36 38
M  V30 38 1 37 39
M  V30 39 1 14 16
M  V30 40 1 28 30
M  V30 41 1 29 36
M  V30 42 1 31 32
M  V30 43 1 38 39
M  V30 END BOND
M  V30 BEGIN COLLECTION
M  V30 MDLV30/STEABS ATOMS=(4 4 5 10 16)
M  V30 END COLLECTION
M  V30 END CTAB
M  END
>  <Molecule Name>
ZINC000043450324

>  <minimizedAffinity>
-7.09646

$$$$
ZINC000003831405
Actelion Java MolfileCreator 2.0

  0  0  0  0  0  0              0 V3000
M  V30 BEGIN CTAB
M  V30 COUNTS 24 27 0 0 0
M  V30 BEGIN ATOM
M  V30 1 O 30.7138 -2.6339 19.1795 0
M  V30 2 C 31.4549 -3.1941 18.1775 0
M  V30 3 C 29.4617 -3.2425 19.4716 0
M  V30 4 C 32.6319 -2.508 17.8635 0
M  V30 5 C 31.1413 -4.3458 17.4723 0
M  V30 6 C 33.5185 -2.9536 16.8497 0
M  V30 7 C 31.9993 -4.7928 16.4633 0
M  V30 8 C 33.1704 -4.1243 16.1367 0
M  V30 9 C 34.7342 -2.2964 16.4914 0
M  V30 10 N 33.9155 -4.6273 15.1432 0
M  V30 11 C 35.4858 -2.8289 15.4376 0
M  V30 12 C 35.1834 -1.0221 17.1997 0 CFG=2
M  V30 13 C 35.0477 -3.9796 14.8134 0
M  V30 14 O 35.5231 -0.0433 16.2038 0
M  V30 15 C 36.3796 -1.1181 18.2113 0 CFG=2
M  V30 16 N 36.9667 -2.4832 18.3831 0 CFG=2
M  V30 17 C 35.9871 -0.5227 19.5932 0
M  V30 18 C 36.0296 -3.3451 19.1469 0
M  V30 19 C 38.2245 -2.3596 19.156 0
M  V30 20 C 36.49 -1.4442 20.7211 0 CFG=1
M  V30 21 C 35.8182 -2.8347 20.5965 0 CFG=1
M  V30 22 C 37.9998 -1.6463 20.4989 0
M  V30 23 C 34.3575 -2.8156 20.982 0
M  V30 24 C 33.6143 -3.9171 21.1507 0
M  V30 END ATOM
M  V30 BEGIN BOND
M  V30 1 1 1 2
M  V30 2 1 1 3
M  V30 3 2 2 4
M  V30 4 1 2 5
M  V30 5 1 4 6
M  V30 6 2 5 7
M  V30 7 1 6 8
M  V30 8 2 6 9
M  V30 9 2 8 10
M  V30 10 1 9 11
M  V30 11 1 9 12
M  V30 12 1 10 13
M  V30 13 1 12 14
M  V30 14 1 12 15
M  V30 15 1 15 16
M  V30 16 1 15 17
M  V30 17 1 16 18
M  V30 18 1 16 19
M  V30 19 1 17 20
M  V30 20 1 18 21
M  V30 21 1 19 22
M  V30 22 1 21 23
M  V30 23 2 23 24
M  V30 24 1 7 8
M  V30 25 2 11 13
M  V30 26 1 20 21
M  V30 27 1 20 22
M  V30 END BOND
M  V30 BEGIN COLLECTION
M  V30 MDLV30/STEABS ATOMS=(5 12 15 16 20 21)
M  V30 END COLLECTION
M  V30 END CTAB
M  END
>  <Molecule Name>
ZINC000003831405

>  <minimizedAffinity>
-7.06739

$$$$
ZINC000000156395
Actelion Java MolfileCreator 2.0

  0  0  0  0  0  0              0 V3000
M  V30 BEGIN CTAB
M  V30 COUNTS 16 16 0 0 0
M  V30 BEGIN ATOM
M  V30 1 O 32.9965 0.5262 26.6404 0
M  V30 2 C 31.7917 0.3358 26.7248 0
M  V30 3 O 30.9548 1.3671 26.9607 0
M  V30 4 C 31.0782 -1.0117 26.6673 0 CFG=1
M  V30 5 N 32.0303 -2.0208 26.2002 0
M  V30 6 C 30.5301 -1.3273 28.0644 0
M  V30 7 C 32.2699 -2.2131 24.8623 0
M  V30 8 C 29.1144 -1.8577 28.0568 0
M  V30 9 O 31.7075 -1.5794 23.9764 0
M  V30 10 C 33.3184 -3.2516 24.5733 0
M  V30 11 C 28.0223 -0.9808 27.9776 0
M  V30 12 C 28.8735 -3.237 28.1349 0
M  V30 13 C 26.7149 -1.4727 27.9639 0
M  V30 14 C 27.5671 -3.7281 28.1231 0
M  V30 15 C 26.4993 -2.8442 28.0357 0
M  V30 16 O 25.2403 -3.3677 28.0243 0
M  V30 END ATOM
M  V30 BEGIN BOND
M  V30 1 2 1 2
M  V30 2 1 2 3
M  V30 3 1 2 4
M  V30 4 1 4 5
M  V30 5 1 4 6
M  V30 6 1 5 7
M  V30 7 1 6 8
M  V30 8 2 7 9
M  V30 9 1 7 10
M  V30 10 2 8 11
M  V30 11 1 8 12
M  V30 12 1 11 13
M  V30 13 2 12 14
M  V30 14 2 13 15
M  V30 15 1 15 16
M  V30 16 1 14 15
M  V30 END BOND
M  V30 BEGIN COLLECTION
M  V30 MDLV30/STEABS ATOMS=(1 4)
M  V30 END COLLECTION
M  V30 END CTAB
M  END
>  <Molecule Name>
ZINC000000156395

>  <minimizedAffinity>
-7.00702

$$$$
ZINC000003914808
Actelion Java MolfileCreator 2.0

  0  0  0  0  0  0              0 V3000
M  V30 BEGIN CTAB
M  V30 COUNTS 28 31 0 0 0
M  V30 BEGIN ATOM
M  V30 1 O 37.5499 -1.8039 20.8244 0
M  V30 2 C 36.6316 -2.4477 20.3476 0
M  V30 3 O 36.8778 -3.5598 19.627 0
M  V30 4 C 35.1559 -2.169 20.4594 0
M  V30 5 C 34.5381 -2.8773 21.6693 0
M  V30 6 C 33.066 -2.4791 21.9164 0 CFG=2
M  V30 7 C 32.5415 -2.7293 23.3576 0 CFG=2
M  V30 8 C 32.1606 -3.2256 20.9197 0
M  V30 9 C 31.883 -1.54 24.1167 0 CFG=2
M  V30 10 C 33.5536 -3.2962 24.3832 0
M  V30 11 C 31.6928 -2.2103 25.4967 0 CFG=1
M  V30 12 C 30.4889 -1.1495 23.6045 0
M  V30 13 C 32.7914 -0.2914 24.1483 0
M  V30 14 C 33.045 -2.8624 25.7722 0
M  V30 15 C 31.0954 -1.2662 26.5503 0 CFG=2
M  V30 16 C 29.7486 -0.2335 24.5953 0
M  V30 17 C 31.0122 -1.92 27.9425 0 CFG=2
M  V30 18 C 29.6923 -0.7836 26.0479 0 CFG=2
M  V30 19 O 30.3856 -3.1949 27.8495 0
M  V30 20 C 30.2772 -1.0393 28.9569 0
M  V30 21 C 29.0107 0.1979 27.0762 0 CFG=2
M  V30 22 C 28.9154 -0.4997 28.4744 0 CFG=1
M  V30 23 C 27.5813 0.6309 26.6336 0
M  V30 24 C 29.8237 1.5127 27.218 0
M  V30 25 C 27.831 -1.5969 28.5266 0
M  V30 26 C 26.5492 -0.4881 26.6764 0
M  V30 27 C 26.4668 -1.0886 28.0738 0 CFG=1
M  V30 28 O 25.5478 -2.1757 28.0793 0
M  V30 END ATOM
M  V30 BEGIN BOND
M  V30 1 2 1 2
M  V30 2 1 2 3
M  V30 3 1 2 4
M  V30 4 1 4 5
M  V30 5 1 5 6
M  V30 6 1 6 7
M  V30 7 1 6 8
M  V30 8 1 7 9
M  V30 9 1 7 10
M  V30 10 1 9 11
M  V30 11 1 9 12
M  V30 12 1 9 13
M  V30 13 1 10 14
M  V30 14 1 11 15
M  V30 15 1 12 16
M  V30 16 1 15 17
M  V30 17 1 15 18
M  V30 18 1 17 19
M  V30 19 1 17 20
M  V30 20 1 18 21
M  V30 21 1 20 22
M  V30 22 1 21 23
M  V30 23 1 21 24
M  V30 24 1 22 25
M  V30 25 1 23 26
M  V30 26 1 25 27
M  V30 27 1 27 28
M  V30 28 1 11 14
M  V30 29 1 16 18
M  V30 30 1 21 22
M  V30 31 1 26 27
M  V30 END BOND
M  V30 BEGIN COLLECTION
M  V30 MDLV30/STEABS ATOMS=(10 6 7 9 11 15 17 18 21 22 27)
M  V30 END COLLECTION
M  V30 END CTAB
M  END
>  <Molecule Name>
ZINC000003914808

>  <minimizedAffinity>
-6.99445

$$$$
ZINC000000034157
Actelion Java MolfileCreator 2.0

  0  0  0  0  0  0              0 V3000
M  V30 BEGIN CTAB
M  V30 COUNTS 13 13 0 0 0
M  V30 BEGIN ATOM
M  V30 1 O 25.4205 -1.1664 26.9726 0
M  V30 2 C 26.539 -1.8777 27.3127 0
M  V30 3 C 26.3572 -3.058 28.0248 0
M  V30 4 C 27.8191 -1.4446 26.9702 0
M  V30 5 O 25.0989 -3.4709 28.3551 0
M  V30 6 C 27.4443 -3.819 28.4147 0
M  V30 7 C 28.9423 -2.2128 27.3262 0
M  V30 8 C 28.7304 -3.3919 28.0748 0
M  V30 9 C 30.3696 -1.7804 27.0152 0 CFG=1
M  V30 10 O 31.1466 -2.9074 26.5746 0
M  V30 11 C 30.5739 -0.626 25.9794 0 CFG=1
M  V30 12 N 31.3187 0.4992 26.5861 0
M  V30 13 C 31.3675 -1.0609 24.7425 0
M  V30 END ATOM
M  V30 BEGIN BOND
M  V30 1 1 1 2
M  V30 2 2 2 3
M  V30 3 1 2 4
M  V30 4 1 3 5
M  V30 5 1 3 6
M  V30 6 2 4 7
M  V30 7 2 6 8
M  V30 8 1 7 9
M  V30 9 1 9 10
M  V30 10 1 9 11
M  V30 11 1 11 12
M  V30 12 1 11 13
M  V30 13 1 7 8
M  V30 END BOND
M  V30 BEGIN COLLECTION
M  V30 MDLV30/STEABS ATOMS=(2 9 11)
M  V30 END COLLECTION
M  V30 END CTAB
M  END
>  <Molecule Name>
ZINC000000034157

>  <minimizedAffinity>
-6.96501

$$$$
ZINC000012503177
Actelion Java MolfileCreator 2.0

  0  0  0  0  0  0              0 V3000
M  V30 BEGIN CTAB
M  V30 COUNTS 25 25 0 0 0
M  V30 BEGIN ATOM
M  V30 1 O 25.6138 -0.6466 28.4343 0
M  V30 2 C 26.498 -1.4494 28.1594 0
M  V30 3 C 27.8986 -1.057 27.7223 0 CFG=1
M  V30 4 C 26.3006 -2.9354 28.2321 0
M  V30 5 C 28.4634 -2.4174 27.2674 0 CFG=2
M  V30 6 C 27.8335 0.0183 26.6317 0
M  V30 7 C 27.7305 -3.443 28.1546 0 CFG=2
M  V30 8 C 29.9617 -2.5217 27.4376 0
M  V30 9 C 28.6946 1.2644 26.8546 0
M  V30 10 O 27.7702 -4.7334 27.5607 0
M  V30 11 C 30.8433 -2.3203 26.4447 0
M  V30 12 C 28.8542 1.7192 28.3088 0
M  V30 13 C 32.3328 -2.4122 26.6047 0 CFG=1
M  V30 14 C 30.3119 1.7765 28.7721 0
M  V30 15 O 32.7883 -3.469 25.7697 0
M  V30 16 C 33.0148 -1.1035 26.1938 0
M  V30 17 C 30.6019 0.8544 29.9603 0
M  V30 18 C 32.0016 -0.0416 25.7493 0
M  V30 19 C 31.4641 -0.3504 29.5988 0
M  V30 20 C 32.4746 1.3643 26.1272 0
M  V30 21 C 32.8868 -0.1382 30.0305 0
M  V30 22 C 33.7822 1.3711 26.9222 0
M  V30 23 O 33.3036 0.7749 30.7224 0
M  V30 24 O 33.72 -1.0898 29.5694 0
M  V30 25 C 33.9505 2.5994 27.8036 0
M  V30 END ATOM
M  V30 BEGIN BOND
M  V30 1 2 1 2
M  V30 2 1 2 3
M  V30 3 1 2 4
M  V30 4 1 3 5
M  V30 5 1 3 6
M  V30 6 1 4 7
M  V30 7 1 5 8
M  V30 8 1 6 9
M  V30 9 1 7 10
M  V30 10 2 8 11
M  V30 11 1 9 12
M  V30 12 1 11 13
M  V30 13 1 12 14
M  V30 14 1 13 15
M  V30 15 1 13 16
M  V30 16 1 14 17
M  V30 17 1 16 18
M  V30 18 1 17 19
M  V30 19 1 18 20
M  V30 20 1 19 21
M  V30 21 1 20 22
M  V30 22 2 21 23
M  V30 23 1 21 24
M  V30 24 1 22 25
M  V30 25 1 5 7
M  V30 END BOND
M  V30 BEGIN COLLECTION
M  V30 MDLV30/STEABS ATOMS=(4 3 5 7 13)
M  V30 END COLLECTION
M  V30 END CTAB
M  END
>  <Molecule Name>
ZINC000012503177

>  <minimizedAffinity>
-6.94576

$$$$
ZINC000000113415
Actelion Java MolfileCreator 2.0

  0  0  0  0  0  0              0 V3000
M  V30 BEGIN CTAB
M  V30 COUNTS 19 19 0 0 0
M  V30 BEGIN ATOM
M  V30 1 O 26.0103 -0.8087 28.2978 0
M  V30 2 C 25.9182 -1.0737 27.1035 0
M  V30 3 N 24.8584 -0.6243 26.3709 0
M  V30 4 C 26.9109 -1.954 26.3689 0
M  V30 5 C 28.3536 -1.665 26.712 0
M  V30 6 C 29.1047 -2.5855 27.4521 0
M  V30 7 C 28.9677 -0.4803 26.2859 0
M  V30 8 C 30.4383 -2.3163 27.7669 0
M  V30 9 C 30.3051 -0.2146 26.6026 0
M  V30 10 C 31.046 -1.1317 27.3469 0
M  V30 11 O 32.3538 -0.9969 27.7215 0
M  V30 12 C 32.6644 -1.2208 29.1028 0
M  V30 13 C 32.0813 -0.0479 29.9038 0 CFG=1
M  V30 14 O 32.0618 -0.4068 31.2927 0
M  V30 15 C 32.9243 1.2276 29.6925 0
M  V30 16 N 32.5443 1.9442 28.4695 0
M  V30 17 C 33.6836 2.3942 27.6693 0
M  V30 18 C 33.4382 1.9629 26.2221 0
M  V30 19 C 35.0066 1.8093 28.1656 0
M  V30 END ATOM
M  V30 BEGIN BOND
M  V30 1 2 1 2
M  V30 2 1 2 3
M  V30 3 1 2 4
M  V30 4 1 4 5
M  V30 5 2 5 6
M  V30 6 1 5 7
M  V30 7 1 6 8
M  V30 8 2 7 9
M  V30 9 2 8 10
M  V30 10 1 10 11
M  V30 11 1 11 12
M  V30 12 1 12 13
M  V30 13 1 13 14
M  V30 14 1 13 15
M  V30 15 1 15 16
M  V30 16 1 16 17
M  V30 17 1 17 18
M  V30 18 1 17 19
M  V30 19 1 9 10
M  V30 END BOND
M  V30 BEGIN COLLECTION
M  V30 MDLV30/STEABS ATOMS=(1 13)
M  V30 END COLLECTION
M  V30 END CTAB
M  END
>  <Molecule Name>
ZINC000000113415

>  <minimizedAffinity>
-6.90495

$$$$
ZINC000019875504
Actelion Java MolfileCreator 2.0

  0  0  0  0  0  0              0 V3000
M  V30 BEGIN CTAB
M  V30 COUNTS 13 14 0 0 0
M  V30 BEGIN ATOM
M  V30 1 N 30.5527 0.0 28.2711 0
M  V30 2 C 29.3315 -0.1563 27.4904 0 CFG=1
M  V30 3 C 30.4013 0.9648 29.3513 0
M  V30 4 C 28.5946 -1.4323 27.8079 0
M  V30 5 C 28.2337 0.8822 27.8168 0
M  V30 6 C 31.4658 0.759 30.342 0
M  V30 7 C 27.2095 -1.2201 27.7985 0
M  V30 8 C 29.1145 -2.699 28.0293 0
M  V30 9 C 26.8931 0.2092 27.4891 0
M  V30 10 C 32.3358 0.5907 31.1531 0
M  V30 11 C 26.3218 -2.2614 28.0121 0
M  V30 12 C 28.2278 -3.7531 28.2593 0
M  V30 13 C 26.8412 -3.5357 28.2506 0
M  V30 END ATOM
M  V30 BEGIN BOND
M  V30 1 1 1 2
M  V30 2 1 1 3
M  V30 3 1 2 4
M  V30 4 1 2 5
M  V30 5 1 3 6
M  V30 6 2 4 7
M  V30 7 1 4 8
M  V30 8 1 5 9
M  V30 9 3 6 10
M  V30 10 1 7 11
M  V30 11 2 8 12
M  V30 12 2 11 13
M  V30 13 1 7 9
M  V30 14 1 12 13
M  V30 END BOND
M  V30 BEGIN COLLECTION
M  V30 MDLV30/STEABS ATOMS=(1 2)
M  V30 END COLLECTION
M  V30 END CTAB
M  END
>  <Molecule Name>
ZINC000019875504

>  <minimizedAffinity>
-6.76900

$$$$
ZINC000000895199
Actelion Java MolfileCreator 2.0

  0  0  0  0  0  0              0 V3000
M  V30 BEGIN CTAB
M  V30 COUNTS 14 14 0 0 0
M  V30 BEGIN ATOM
M  V30 1 O 32.7856 -1.4983 25.6848 0
M  V30 2 C 32.1817 -2.315 26.3641 0
M  V30 3 O 32.124 -3.6074 25.9833 0
M  V30 4 C 31.3872 -2.0331 27.6394 0 CFG=1
M  V30 5 N 32.275 -1.4002 28.6432 0
M  V30 6 C 30.1855 -1.1515 27.2574 0
M  V30 7 C 28.8453 -1.7888 27.5445 0
M  V30 8 C 27.6575 -1.1245 27.2042 0
M  V30 9 C 28.7735 -3.0516 28.1577 0
M  V30 10 C 26.4336 -1.7226 27.4738 0
M  V30 11 C 27.537 -3.6519 28.4082 0
M  V30 12 O 25.2883 -1.0343 27.1952 0
M  V30 13 C 26.3747 -2.9888 28.0466 0
M  V30 14 O 25.1741 -3.6097 28.2339 0
M  V30 END ATOM
M  V30 BEGIN BOND
M  V30 1 2 1 2
M  V30 2 1 2 3
M  V30 3 1 2 4
M  V30 4 1 4 5
M  V30 5 1 4 6
M  V30 6 1 6 7
M  V30 7 2 7 8
M  V30 8 1 7 9
M  V30 9 1 8 10
M  V30 10 2 9 11
M  V30 11 1 10 12
M  V30 12 2 10 13
M  V30 13 1 13 14
M  V30 14 1 11 13
M  V30 END BOND
M  V30 BEGIN COLLECTION
M  V30 MDLV30/STEABS ATOMS=(1 4)
M  V30 END COLLECTION
M  V30 END CTAB
M  END
>  <Molecule Name>
ZINC000000895199

>  <minimizedAffinity>
-6.75517

$$$$
ZINC000006858022
Actelion Java MolfileCreator 2.0

  0  0  0  0  0  0              0 V3000
M  V30 BEGIN CTAB
M  V30 COUNTS 29 32 0 0 0
M  V30 BEGIN ATOM
M  V30 1 O 27.7315 -7.7914 15.0477 0
M  V30 2 C 28.709 -7.7324 15.7732 0
M  V30 3 O 28.6407 -7.1029 16.9633 0
M  V30 4 C 30.0797 -8.3023 15.5195 0
M  V30 5 C 31.0235 -8.0456 16.6992 0
M  V30 6 C 32.4364 -7.6027 16.2591 0 CFG=2
M  V30 7 C 32.7155 -6.0768 16.356 0 CFG=2
M  V30 8 C 32.6913 -8.0655 14.8128 0
M  V30 9 C 33.9864 -5.6148 17.1338 0 CFG=1
M  V30 10 C 31.589 -5.1919 16.9444 0
M  V30 11 C 35.3417 -5.9225 16.4598 0 CFG=1
M  V30 12 C 33.7461 -4.0854 17.0838 0 CFG=1
M  V30 13 C 34.0167 -6.1775 18.5768 0
M  V30 14 C 32.2829 -3.9319 17.4984 0
M  V30 15 O 35.3095 -5.687 15.0531 0
M  V30 16 C 36.4916 -5.1052 17.0867 0
M  V30 17 C 34.8131 -3.2784 17.84 0 CFG=1
M  V30 18 C 36.2159 -3.5774 17.2114 0 CFG=1
M  V30 19 C 34.5006 -1.7692 17.8497 0 CFG=2
M  V30 20 C 37.3637 -2.7816 17.946 0 CFG=2
M  V30 21 O 34.2312 -1.3171 16.5265 0
M  V30 22 C 35.6301 -0.9396 18.4663 0
M  V30 23 C 37.0352 -1.2515 17.9111 0 CFG=2
M  V30 24 C 38.7616 -3.0071 17.2968 0
M  V30 25 C 37.5077 -3.2386 19.4229 0
M  V30 26 C 37.2352 -0.6254 16.5139 0
M  V30 27 C 38.9087 -2.3978 15.9091 0
M  V30 28 C 38.6232 -0.9026 15.944 0 CFG=1
M  V30 29 O 38.712 -0.3927 14.6179 0
M  V30 END ATOM
M  V30 BEGIN BOND
M  V30 1 2 1 2
M  V30 2 1 2 3
M  V30 3 1 2 4
M  V30 4 1 4 5
M  V30 5 1 5 6
M  V30 6 1 6 7
M  V30 7 1 6 8
M  V30 8 1 7 9
M  V30 9 1 7 10
M  V30 10 1 9 11
M  V30 11 1 9 12
M  V30 12 1 9 13
M  V30 13 1 10 14
M  V30 14 1 11 15
M  V30 15 1 11 16
M  V30 16 1 12 17
M  V30 17 1 16 18
M  V30 18 1 17 19
M  V30 19 1 18 20
M  V30 20 1 19 21
M  V30 21 1 19 22
M  V30 22 1 20 23
M  V30 23 1 20 24
M  V30 24 1 20 25
M  V30 25 1 23 26
M  V30 26 1 24 27
M  V30 27 1 26 28
M  V30 28 1 28 29
M  V30 29 1 12 14
M  V30 30 1 17 18
M  V30 31 1 22 23
M  V30 32 1 27 28
M  V30 END BOND
M  V30 BEGIN COLLECTION
M  V30 MDLV30/STEABS ATOMS=(11 6 7 9 11 12 17 18 19 20 23 28)
M  V30 END COLLECTION
M  V30 END CTAB
M  END
>  <Molecule Name>
ZINC000006858022

>  <minimizedAffinity>
-6.62228

$$$$
ZINC000000266964
Actelion Java MolfileCreator 2.0

  0  0  0  0  0  0              0 V3000
M  V30 BEGIN CTAB
M  V30 COUNTS 13 13 0 0 0
M  V30 BEGIN ATOM
M  V30 1 O 25.7534 -2.4752 28.7233 0
M  V30 2 C 26.2099 -2.2495 27.6122 0
M  V30 3 O 26.9193 -3.1954 26.9625 0
M  V30 4 C 26.1226 -0.9342 26.8375 0 CFG=1
M  V30 5 N 24.7104 -0.6642 26.4807 0
M  V30 6 C 26.7462 0.1673 27.7119 0
M  V30 7 C 28.2234 0.3761 27.4692 0
M  V30 8 C 28.8684 -0.2717 26.4051 0
M  V30 9 C 28.9671 1.2249 28.3007 0
M  V30 10 C 30.2311 -0.0713 26.1729 0
M  V30 11 C 30.3286 1.4249 28.0685 0
M  V30 12 C 30.9494 0.7774 27.008 0
M  V30 13 O 32.2806 1.0028 26.8177 0
M  V30 END ATOM
M  V30 BEGIN BOND
M  V30 1 2 1 2
M  V30 2 1 2 3
M  V30 3 1 2 4
M  V30 4 1 4 5
M  V30 5 1 4 6
M  V30 6 1 6 7
M  V30 7 2 7 8
M  V30 8 1 7 9
M  V30 9 1 8 10
M  V30 10 2 9 11
M  V30 11 2 10 12
M  V30 12 1 12 13
M  V30 13 1 11 12
M  V30 END BOND
M  V30 BEGIN COLLECTION
M  V30 MDLV30/STEABS ATOMS=(1 4)
M  V30 END COLLECTION
M  V30 END CTAB
M  END
>  <Molecule Name>
ZINC000000266964

>  <minimizedAffinity>
-6.50593

$$$$
ZINC000000039089
Actelion Java MolfileCreator 2.0

  0  0  0  0  0  0              0 V3000
M  V30 BEGIN CTAB
M  V30 COUNTS 13 13 0 0 0
M  V30 BEGIN ATOM
M  V30 1 O 25.4521 -1.1595 26.9043 0
M  V30 2 C 26.5663 -1.8623 27.274 0
M  V30 3 C 26.385 -3.0078 28.0426 0
M  V30 4 C 27.8442 -1.4584 26.9023 0
M  V30 5 O 25.1264 -3.3929 28.4061 0
M  V30 6 C 27.47 -3.7694 28.446 0
M  V30 7 C 28.9605 -2.2158 27.2974 0
M  V30 8 C 28.7568 -3.3736 28.0736 0
M  V30 9 C 30.369 -1.7973 26.9344 0 CFG=1
M  V30 10 O 31.1853 -2.9422 26.658 0
M  V30 11 C 30.3926 -0.8651 25.699 0
M  V30 12 N 31.7909 -0.5886 25.3052 0
M  V30 13 C 32.3732 0.4305 26.1724 0
M  V30 END ATOM
M  V30 BEGIN BOND
M  V30 1 1 1 2
M  V30 2 2 2 3
M  V30 3 1 2 4
M  V30 4 1 3 5
M  V30 5 1 3 6
M  V30 6 2 4 7
M  V30 7 2 6 8
M  V30 8 1 7 9
M  V30 9 1 9 10
M  V30 10 1 9 11
M  V30 11 1 11 12
M  V30 12 1 12 13
M  V30 13 1 7 8
M  V30 END BOND
M  V30 BEGIN COLLECTION
M  V30 MDLV30/STEABS ATOMS=(1 9)
M  V30 END COLLECTION
M  V30 END CTAB
M  END
>  <Molecule Name>
ZINC000000039089

>  <minimizedAffinity>
-6.46370

$$$$
ZINC000003830891
Actelion Java MolfileCreator 2.0

  0  0  0  0  0  0              0 V3000
M  V30 BEGIN CTAB
M  V30 COUNTS 20 19 0 0 0
M  V30 BEGIN ATOM
M  V30 1 S 32.3829 0.8077 30.9163 0
M  V30 2 C 31.9472 -0.4261 29.6401 0
M  V30 3 C 31.3455 0.2213 28.3847 0 CFG=2
M  V30 4 N 29.98 -0.2443 28.1335 0
M  V30 5 C 32.168 -0.1392 27.1305 0
M  V30 6 C 28.9012 0.6022 28.173 0
M  V30 7 O 33.2686 0.3666 26.9056 0
M  V30 8 N 31.5926 -1.0631 26.2933 0
M  V30 9 O 29.0008 1.7876 28.4671 0
M  V30 10 C 27.5938 -0.0773 27.8175 0
M  V30 11 C 32.2807 -1.5619 25.1149 0
M  V30 12 C 27.7621 -1.0781 26.6743 0
M  V30 13 C 32.7356 -2.9968 25.3272 0
M  V30 14 C 27.1202 -2.439 26.9668 0 CFG=2
M  V30 15 O 33.5774 -3.6016 24.6802 0
M  V30 16 O 32.1568 -3.5726 26.4008 0
M  V30 17 N 25.9168 -2.329 27.8159 0
M  V30 18 C 28.1517 -3.3378 27.6591 0
M  V30 19 O 27.9241 -4.2018 28.4931 0
M  V30 20 O 29.4188 -3.063 27.288 0
M  V30 END ATOM
M  V30 BEGIN BOND
M  V30 1 1 1 2
M  V30 2 1 2 3
M  V30 3 1 3 4
M  V30 4 1 3 5
M  V30 5 1 4 6
M  V30 6 2 5 7
M  V30 7 1 5 8
M  V30 8 2 6 9
M  V30 9 1 6 10
M  V30 10 1 8 11
M  V30 11 1 10 12
M  V30 12 1 11 13
M  V30 13 1 12 14
M  V30 14 2 13 15
M  V30 15 1 13 16
M  V30 16 1 14 17
M  V30 17 1 14 18
M  V30 18 2 18 19
M  V30 19 1 18 20
M  V30 END BOND
M  V30 BEGIN COLLECTION
M  V30 MDLV30/STEABS ATOMS=(2 3 14)
M  V30 END COLLECTION
M  V30 END CTAB
M  END
>  <Molecule Name>
ZINC000003830891

>  <minimizedAffinity>
-6.37834

$$$$
ZINC000035024346
Actelion Java MolfileCreator 2.0

  0  0  0  0  0  0              0 V3000
M  V30 BEGIN CTAB
M  V30 COUNTS 16 17 0 0 0
M  V30 BEGIN ATOM
M  V30 1 S 31.083 1.026 27.5664 0
M  V30 2 C 29.6328 0.0423 28.0521 0 CFG=2
M  V30 3 C 32.166 0.1872 28.7505 0
M  V30 4 C 30.1877 -1.3584 28.3386 0 CFG=2
M  V30 5 C 28.492 0.0755 27.0288 0
M  V30 6 C 31.6655 -1.2549 28.8445 0 CFG=1
M  V30 7 N 30.3656 -2.1913 27.1759 0
M  V30 8 C 27.1449 0.4891 27.635 0
M  V30 9 N 32.5088 -2.1456 27.9547 0
M  V30 10 C 31.6456 -2.5613 27.0891 0
M  V30 11 C 26.166 -0.6865 27.6601 0
M  V30 12 O 31.9745 -3.3718 26.0931 0
M  V30 13 C 26.7525 -1.9158 26.9685 0
M  V30 14 C 26.7641 -3.1129 27.8802 0
M  V30 15 O 27.7136 -3.8226 28.1627 0
M  V30 16 O 25.5482 -3.352 28.4104 0
M  V30 END ATOM
M  V30 BEGIN BOND
M  V30 1 1 1 2
M  V30 2 1 1 3
M  V30 3 1 2 4
M  V30 4 1 2 5
M  V30 5 1 3 6
M  V30 6 1 4 7
M  V30 7 1 5 8
M  V30 8 1 6 9
M  V30 9 1 7 10
M  V30 10 1 8 11
M  V30 11 1 10 12
M  V30 12 1 11 13
M  V30 13 1 13 14
M  V30 14 2 14 15
M  V30 15 1 14 16
M  V30 16 1 4 6
M  V30 17 2 9 10
M  V30 END BOND
M  V30 BEGIN COLLECTION
M  V30 MDLV30/STEABS ATOMS=(3 2 4 6)
M  V30 END COLLECTION
M  V30 END CTAB
M  END
>  <Molecule Name>
ZINC000035024346

>  <minimizedAffinity>
-6.35846

$$$$
ZINC000000056568
Actelion Java MolfileCreator 2.0

  0  0  0  0  0  0              0 V3000
M  V30 BEGIN CTAB
M  V30 COUNTS 12 12 0 0 0
M  V30 BEGIN ATOM
M  V30 1 O 26.0296 -1.4191 28.378 0
M  V30 2 C 26.1869 -2.5839 28.056 0
M  V30 3 O 25.2833 -3.5195 28.4092 0
M  V30 4 C 27.3237 -3.1725 27.2658 0
M  V30 5 C 28.5789 -3.3314 28.1247 0
M  V30 6 C 29.7903 -2.5869 27.5557 0
M  V30 7 C 30.1723 -1.3592 28.3449 0
M  V30 8 C 29.3956 -0.1947 28.2688 0
M  V30 9 C 31.3048 -1.3664 29.1699 0
M  V30 10 C 29.7438 0.9383 29.0057 0
M  V30 11 C 31.6514 -0.232 29.9061 0
M  V30 12 C 30.871 0.9192 29.8245 0
M  V30 END ATOM
M  V30 BEGIN BOND
M  V30 1 2 1 2
M  V30 2 1 2 3
M  V30 3 1 2 4
M  V30 4 1 4 5
M  V30 5 1 5 6
M  V30 6 1 6 7
M  V30 7 2 7 8
M  V30 8 1 7 9
M  V30 9 1 8 10
M  V30 10 2 9 11
M  V30 11 2 10 12
M  V30 12 1 11 12
M  V30 END BOND
M  V30 END CTAB
M  END
>  <Molecule Name>
ZINC000000056568

>  <minimizedAffinity>
-6.32063

$$$$
ZINC000000105196
Actelion Java MolfileCreator 2.0

  0  0  0  0  0  0              0 V3000
M  V30 BEGIN CTAB
M  V30 COUNTS 12 12 0 0 0
M  V30 BEGIN ATOM
M  V30 1 O 25.8372 -1.2411 28.2745 0
M  V30 2 C 26.2334 -2.3909 28.1541 0
M  V30 3 O 25.3747 -3.4235 28.2839 0
M  V30 4 C 27.6745 -2.8415 27.9153 0 CFG=1
M  V30 5 N 27.6741 -4.1018 27.1354 0
M  V30 6 C 28.4125 -1.6928 27.2058 0
M  V30 7 C 29.4045 -0.969 28.0864 0
M  V30 8 C 30.5454 -1.6281 28.564 0
M  V30 9 C 29.1939 0.3701 28.4433 0
M  V30 10 C 31.4551 -0.9616 29.3863 0
M  V30 11 C 30.1049 1.0345 29.2661 0
M  V30 12 C 31.2343 0.3686 29.738 0
M  V30 END ATOM
M  V30 BEGIN BOND
M  V30 1 2 1 2
M  V30 2 1 2 3
M  V30 3 1 2 4
M  V30 4 1 4 5
M  V30 5 1 4 6
M  V30 6 1 6 7
M  V30 7 2 7 8
M  V30 8 1 7 9
M  V30 9 1 8 10
M  V30 10 2 9 11
M  V30 11 2 10 12
M  V30 12 1 11 12
M  V30 END BOND
M  V30 BEGIN COLLECTION
M  V30 MDLV30/STEABS ATOMS=(1 4)
M  V30 END COLLECTION
M  V30 END CTAB
M  END
>  <Molecule Name>
ZINC000000105196

>  <minimizedAffinity>
-6.23599

$$$$
ZINC000003830993
Actelion Java MolfileCreator 2.0

  0  0  0  0  0  0              0 V3000
M  V30 BEGIN CTAB
M  V30 COUNTS 24 25 0 0 0
M  V30 BEGIN ATOM
M  V30 1 I 36.3629 -1.7079 20.0437 0
M  V30 2 C 34.4287 -2.434 20.4041 0
M  V30 3 C 33.4283 -2.4223 19.4221 0
M  V30 4 C 34.1549 -2.9336 21.683 0
M  V30 5 O 33.69 -1.912 18.1734 0
M  V30 6 C 32.1373 -2.8598 19.7518 0
M  V30 7 C 32.8748 -3.4071 22.0043 0
M  V30 8 C 34.1782 -2.7667 17.2034 0
M  V30 9 I 30.5459 -2.7889 18.3875 0
M  V30 10 C 31.8665 -3.3579 21.0323 0
M  V30 11 C 32.5857 -3.953 23.3853 0
M  V30 12 C 35.2089 -2.2338 16.4234 0
M  V30 13 C 33.7294 -4.0685 16.9654 0
M  V30 14 C 32.9892 -3.0006 24.5243 0 CFG=2
M  V30 15 C 35.7913 -2.9953 15.4066 0
M  V30 16 C 34.3139 -4.8283 15.9475 0
M  V30 17 N 33.0748 -3.6749 25.8402 0
M  V30 18 C 31.947 -1.8836 24.5917 0
M  V30 19 I 37.3273 -2.1227 14.285 0
M  V30 20 C 35.3453 -4.2971 15.1643 0
M  V30 21 I 33.6027 -6.7715 15.6341 0
M  V30 22 O 31.7618 -1.0087 23.759 0
M  V30 23 O 31.2331 -1.9009 25.7358 0
M  V30 24 O 35.9241 -5.0327 14.1652 0
M  V30 END ATOM
M  V30 BEGIN BOND
M  V30 1 1 1 2
M  V30 2 2 2 3
M  V30 3 1 2 4
M  V30 4 1 3 5
M  V30 5 1 3 6
M  V30 6 2 4 7
M  V30 7 1 5 8
M  V30 8 1 6 9
M  V30 9 2 6 10
M  V30 10 1 7 11
M  V30 11 2 8 12
M  V30 12 1 8 13
M  V30 13 1 11 14
M  V30 14 1 12 15
M  V30 15 2 13 16
M  V30 16 1 14 17
M  V30 17 1 14 18
M  V30 18 1 15 19
M  V30 19 2 15 20
M  V30 20 1 16 21
M  V30 21 2 18 22
M  V30 22 1 18 23
M  V30 23 1 20 24
M  V30 24 1 7 10
M  V30 25 1 16 20
M  V30 END BOND
M  V30 BEGIN COLLECTION
M  V30 MDLV30/STEABS ATOMS=(1 14)
M  V30 END COLLECTION
M  V30 END CTAB
M  END
>  <Molecule Name>
ZINC000003830993

>  <minimizedAffinity>
-6.18145

$$$$
ZINC000000113355
Actelion Java MolfileCreator 2.0

  0  0  0  0  0  0              0 V3000
M  V30 BEGIN CTAB
M  V30 COUNTS 12 12 0 0 0
M  V30 BEGIN ATOM
M  V30 1 O 25.1708 -3.403 28.2678 0
M  V30 2 C 26.435 -2.9206 28.0952 0
M  V30 3 C 26.5749 -1.5701 27.7893 0
M  V30 4 C 27.5476 -3.7454 28.2167 0
M  V30 5 C 27.8499 -1.0149 27.6004 0
M  V30 6 C 28.8194 -3.2068 28.0278 0
M  V30 7 C 28.9696 -1.8523 27.7193 0
M  V30 8 C 27.9842 0.447 27.2394 0 CFG=1
M  V30 9 O 26.7222 1.1175 27.3446 0
M  V30 10 C 29.0069 1.1702 28.148 0
M  V30 11 N 30.2266 1.4936 27.3761 0
M  V30 12 C 31.4195 1.1211 28.1288 0
M  V30 END ATOM
M  V30 BEGIN BOND
M  V30 1 1 1 2
M  V30 2 2 2 3
M  V30 3 1 2 4
M  V30 4 1 3 5
M  V30 5 2 4 6
M  V30 6 2 5 7
M  V30 7 1 5 8
M  V30 8 1 8 9
M  V30 9 1 8 10
M  V30 10 1 10 11
M  V30 11 1 11 12
M  V30 12 1 6 7
M  V30 END BOND
M  V30 BEGIN COLLECTION
M  V30 MDLV30/STEABS ATOMS=(1 8)
M  V30 END COLLECTION
M  V30 END CTAB
M  END
>  <Molecule Name>
ZINC000000113355

>  <minimizedAffinity>
-6.10164

$$$$
ZINC000013550868
Actelion Java MolfileCreator 2.0

  0  0  0  0  0  0              0 V3000
M  V30 BEGIN CTAB
M  V30 COUNTS 11 11 0 0 0
M  V30 BEGIN ATOM
M  V30 1 O 25.277 -3.4719 28.1035 0
M  V30 2 C 26.4684 -2.81 28.0719 0
M  V30 3 C 26.5255 -1.4199 28.0582 0
M  V30 4 C 27.631 -3.5714 28.0602 0
M  V30 5 C 27.7706 -0.787 28.0254 0
M  V30 6 C 28.8726 -2.9338 28.0289 0
M  V30 7 C 28.9493 -1.5387 27.9942 0
M  V30 8 N 30.1936 -0.8966 27.9799 0
M  V30 9 C 30.6956 -0.5598 26.8408 0
M  V30 10 O 31.8896 0.0489 26.8642 0
M  V30 11 C 30.1399 -0.7504 25.4673 0
M  V30 END ATOM
M  V30 BEGIN BOND
M  V30 1 1 1 2
M  V30 2 2 2 3
M  V30 3 1 2 4
M  V30 4 1 3 5
M  V30 5 2 4 6
M  V30 6 2 5 7
M  V30 7 1 7 8
M  V30 8 2 8 9
M  V30 9 1 9 10
M  V30 10 1 9 11
M  V30 11 1 6 7
M  V30 END BOND
M  V30 END CTAB
M  END
>  <Molecule Name>
ZINC000013550868

>  <minimizedAffinity>
-6.03684

$$$$
ZINC000001482164
Actelion Java MolfileCreator 2.0

  0  0  0  0  0  0              0 V3000
M  V30 BEGIN CTAB
M  V30 COUNTS 11 11 0 0 0
M  V30 BEGIN ATOM
M  V30 1 O 30.4285 -3.1501 26.932 0
M  V30 2 C 29.8906 -1.8687 27.2488 0 CFG=1
M  V30 3 C 30.0523 -0.9029 26.0535 0 CFG=2
M  V30 4 C 28.4222 -2.042 27.6453 0
M  V30 5 C 31.5333 -0.7675 25.5879 0
M  V30 6 C 29.3773 0.4429 26.3747 0
M  V30 7 C 27.7565 -0.6987 27.9556 0 CFG=1
M  V30 8 C 31.6695 -0.9411 24.0703 0
M  V30 9 C 32.2079 0.5394 26.0139 0
M  V30 10 C 27.912 0.2649 26.7741 0
M  V30 11 C 26.2821 -0.8939 28.3031 0
M  V30 END ATOM
M  V30 BEGIN BOND
M  V30 1 1 1 2
M  V30 2 1 2 3
M  V30 3 1 2 4
M  V30 4 1 3 5
M  V30 5 1 3 6
M  V30 6 1 4 7
M  V30 7 1 5 8
M  V30 8 1 5 9
M  V30 9 1 6 10
M  V30 10 1 7 11
M  V30 11 1 7 10
M  V30 END BOND
M  V30 BEGIN COLLECTION
M  V30 MDLV30/STEABS ATOMS=(3 2 3 7)
M  V30 END COLLECTION
M  V30 END CTAB
M  END
>  <Molecule Name>
ZINC000001482164

>  <minimizedAffinity>
-6.01519

$$$$
ZINC000100071256
Actelion Java MolfileCreator 2.0

  0  0  0  0  0  0              0 V3000
M  V30 BEGIN CTAB
M  V30 COUNTS 11 11 0 0 0
M  V30 BEGIN ATOM
M  V30 1 O 27.4409 -4.1681 28.5715 0
M  V30 2 C 26.6635 -3.3242 28.1596 0
M  V30 3 O 25.3385 -3.4585 28.3679 0
M  V30 4 C 27.0005 -2.0615 27.3981 0 CFG=1
M  V30 5 C 26.5111 -0.8366 28.1754 0
M  V30 6 C 28.5056 -1.9838 27.1165 0
M  V30 7 C 26.9138 0.4702 27.4924 0
M  V30 8 C 28.882 -0.674 26.4269 0
M  V30 9 C 28.4242 0.5664 27.2137 0 CFG=2
M  V30 10 C 29.208 0.8021 28.5219 0
M  V30 11 N 30.4787 1.4815 28.2911 0
M  V30 END ATOM
M  V30 BEGIN BOND
M  V30 1 2 1 2
M  V30 2 1 2 3
M  V30 3 1 2 4
M  V30 4 1 4 5
M  V30 5 1 4 6
M  V30 6 1 5 7
M  V30 7 1 6 8
M  V30 8 1 7 9
M  V30 9 1 9 10
M  V30 10 1 10 11
M  V30 11 1 8 9
M  V30 END BOND
M  V30 BEGIN COLLECTION
M  V30 MDLV30/STEABS ATOMS=(2 4 9)
M  V30 END COLLECTION
M  V30 END CTAB
M  END
>  <Molecule Name>
ZINC000100071256

>  <minimizedAffinity>
-5.99158

$$$$
ZINC000000967566
Actelion Java MolfileCreator 2.0

  0  0  0  0  0  0              0 V3000
M  V30 BEGIN CTAB
M  V30 COUNTS 11 12 0 0 0
M  V30 BEGIN ATOM
M  V30 1 O 29.1008 -0.0951 28.6161 0
M  V30 2 C 30.2253 -0.9563 28.3452 0 CFG=1
M  V30 3 C 28.0547 -0.184 27.6251 0
M  V30 4 C 29.724 -2.4129 28.307 0
M  V30 5 C 30.8232 -0.5598 26.982 0
M  V30 6 C 31.2384 -0.7551 29.4673 0
M  V30 7 C 28.4505 -1.2082 26.5212 0 CFG=2
M  V30 8 C 27.8468 1.2283 27.0574 0
M  V30 9 C 26.7675 -0.5911 28.3585 0
M  V30 10 C 28.7129 -2.5822 27.1672 0
M  V30 11 C 29.7824 -0.7786 25.8775 0
M  V30 END ATOM
M  V30 BEGIN BOND
M  V30 1 1 1 2
M  V30 2 1 1 3
M  V30 3 1 2 4
M  V30 4 1 2 5
M  V30 5 1 2 6
M  V30 6 1 3 7
M  V30 7 1 3 8
M  V30 8 1 3 9
M  V30 9 1 4 10
M  V30 10 1 5 11
M  V30 11 1 7 10
M  V30 12 1 7 11
M  V30 END BOND
M  V30 BEGIN COLLECTION
M  V30 MDLV30/STEABS ATOMS=(2 2 7)
M  V30 END COLLECTION
M  V30 END CTAB
M  END
>  <Molecule Name>
ZINC000000967566

>  <minimizedAffinity>
-5.92742

$$$$
ZINC000000074836
Actelion Java MolfileCreator 2.0

  0  0  0  0  0  0              0 V3000
M  V30 BEGIN CTAB
M  V30 COUNTS 12 12 0 0 0
M  V30 BEGIN ATOM
M  V30 1 O 29.9278 -3.0839 27.0647 0
M  V30 2 C 29.1721 -1.8784 27.2858 0 CFG=2
M  V30 3 C 29.8958 -0.9775 28.2786 0
M  V30 4 C 27.6967 -2.2907 27.6207 0 CFG=1
M  V30 5 C 31.0424 -1.4534 28.9424 0
M  V30 6 C 29.5193 0.3559 28.5028 0
M  V30 7 N 26.7725 -2.0338 26.4891 0
M  V30 8 C 27.5682 -3.7934 27.9138 0
M  V30 9 C 31.7526 -0.6456 29.8335 0
M  V30 10 C 30.2293 1.1648 29.3956 0
M  V30 11 C 25.9525 -0.848 26.6952 0
M  V30 12 C 31.3416 0.6627 30.0649 0
M  V30 END ATOM
M  V30 BEGIN BOND
M  V30 1 1 1 2
M  V30 2 1 2 3
M  V30 3 1 2 4
M  V30 4 2 3 5
M  V30 5 1 3 6
M  V30 6 1 4 7
M  V30 7 1 4 8
M  V30 8 1 5 9
M  V30 9 2 6 10
M  V30 10 1 7 11
M  V30 11 2 9 12
M  V30 12 1 10 12
M  V30 END BOND
M  V30 BEGIN COLLECTION
M  V30 MDLV30/STEABS ATOMS=(2 2 4)
M  V30 END COLLECTION
M  V30 END CTAB
M  END
>  <Molecule Name>
ZINC000000074836

>  <minimizedAffinity>
-5.92732

$$$$
ZINC000000967520
Actelion Java MolfileCreator 2.0

  0  0  0  0  0  0              0 V3000
M  V30 BEGIN CTAB
M  V30 COUNTS 11 12 0 0 0
M  V30 BEGIN ATOM
M  V30 1 O 32.0085 0.5675 26.9967 0
M  V30 2 C 30.9357 -0.0139 26.9534 0
M  V30 3 C 29.9698 -0.2148 28.125 0 CFG=1
M  V30 4 C 30.3603 -0.681 25.7199 0
M  V30 5 C 28.6158 -0.1849 27.3648 0
M  V30 6 C 30.1588 -1.7055 28.488 0
M  V30 7 C 30.1584 0.751 29.2698 0
M  V30 8 C 29.0803 -1.2738 26.3583 0 CFG=2
M  V30 9 C 28.2704 1.1721 26.7187 0
M  V30 10 C 27.3902 -0.5959 28.2036 0
M  V30 11 C 29.5251 -2.4356 27.2828 0
M  V30 END ATOM
M  V30 BEGIN BOND
M  V30 1 2 1 2
M  V30 2 1 2 3
M  V30 3 1 2 4
M  V30 4 1 3 5
M  V30 5 1 3 6
M  V30 6 1 3 7
M  V30 7 1 4 8
M  V30 8 1 5 9
M  V30 9 1 5 10
M  V30 10 1 6 11
M  V30 11 1 5 8
M  V30 12 1 8 11
M  V30 END BOND
M  V30 BEGIN COLLECTION
M  V30 MDLV30/STEABS ATOMS=(2 3 8)
M  V30 END COLLECTION
M  V30 END CTAB
M  END
>  <Molecule Name>
ZINC000000967520

>  <minimizedAffinity>
-5.86389

$$$$
ZINC000254134439
Actelion Java MolfileCreator 2.0

  0  0  0  0  0  0              0 V3000
M  V30 BEGIN CTAB
M  V30 COUNTS 36 37 0 0 0
M  V30 BEGIN ATOM
M  V30 1 S 31.4377 -3.7901 17.3643 0
M  V30 2 S 32.4327 -2.249 18.2959 0
M  V30 3 C 32.1411 -5.3547 18.0558 0
M  V30 4 C 33.4394 -1.5424 16.948 0
M  V30 5 C 33.6686 -5.4522 18.2346 0 CFG=1
M  V30 6 C 34.7393 -0.9013 17.452 0
M  V30 7 N 34.3824 -4.9207 17.0588 0
M  V30 8 C 34.035 -4.9207 19.6455 0
M  V30 9 C 35.378 -0.1257 16.3344 0
M  V30 10 C 35.6957 -5.1965 16.7919 0
M  V30 11 O 33.4827 -5.3793 20.6423 0
M  V30 12 N 35.0208 -3.9648 19.6468 0
M  V30 13 C 36.6288 -0.1287 15.8476 0
M  V30 14 O 36.436 -5.5435 17.7156 0
M  V30 15 C 36.2671 -4.8012 15.4088 0 CFG=2
M  V30 16 C 35.4736 -3.1367 20.649 0
M  V30 17 C 37.919 -0.8246 16.2182 0 CFG=1
M  V30 18 N 36.8562 -3.4691 15.5683 0
M  V30 19 C 35.3766 -5.0074 14.1554 0
M  V30 20 C 36.7956 -2.4494 20.3841 0
M  V30 21 C 34.8744 -2.7968 21.803 0
M  V30 22 O 37.8418 -1.6059 17.425 0
M  V30 23 C 38.4661 -1.6709 15.0615 0
M  V30 24 C 37.6668 -2.8873 14.6278 0
M  V30 25 C 34.1675 -4.0792 14.0214 0
M  V30 26 C 34.9574 -6.4696 13.9742 0
M  V30 27 O 37.0578 -1.3271 20.8011 0
M  V30 28 N 37.6663 -3.1909 19.6138 0
M  V30 29 C 33.509 -3.1227 22.3088 0
M  V30 30 C 39.0436 -1.7283 18.0796 0
M  V30 31 O 37.8276 -3.3661 13.5077 0
M  V30 32 C 38.9922 -2.6629 19.3042 0 CFG=2
M  V30 33 O 40.0848 -1.1983 17.7013 0
M  V30 34 C 40.0617 -3.7756 19.1733 0
M  V30 35 C 40.2038 -4.5688 20.4761 0
M  V30 36 C 39.814 -4.7295 18.0027 0
M  V30 END ATOM
M  V30 BEGIN BOND
M  V30 1 1 1 2
M  V30 2 1 1 3
M  V30 3 1 2 4
M  V30 4 1 3 5
M  V30 5 1 4 6
M  V30 6 1 5 7
M  V30 7 1 5 8
M  V30 8 1 6 9
M  V30 9 1 7 10
M  V30 10 2 8 11
M  V30 11 1 8 12
M  V30 12 2 9 13
M  V30 13 2 10 14
M  V30 14 1 10 15
M  V30 15 1 12 16
M  V30 16 1 13 17
M  V30 17 1 15 18
M  V30 18 1 15 19
M  V30 19 1 16 20
M  V30 20 2 16 21
M  V30 21 1 17 22
M  V30 22 1 17 23
M  V30 23 1 18 24
M  V30 24 1 19 25
M  V30 25 1 19 26
M  V30 26 2 20 27
M  V30 27 1 20 28
M  V30 28 1 21 29
M  V30 29 1 22 30
M  V30 30 2 24 31
M  V30 31 1 28 32
M  V30 32 2 30 33
M  V30 33 1 32 34
M  V30 34 1 34 35
M  V30 35 1 34 36
M  V30 36 1 23 24
M  V30 37 1 30 32
M  V30 END BOND
M  V30 BEGIN COLLECTION
M  V30 MDLV30/STEABS ATOMS=(4 5 15 17 32)
M  V30 END COLLECTION
M  V30 END CTAB
M  END
>  <Molecule Name>
ZINC000254134439

>  <minimizedAffinity>
-5.79235

$$$$
ZINC000000020259
Actelion Java MolfileCreator 2.0

  0  0  0  0  0  0              0 V3000
M  V30 BEGIN CTAB
M  V30 COUNTS 12 12 0 0 0
M  V30 BEGIN ATOM
M  V30 1 O 28.2549 -3.7183 27.4243 0
M  V30 2 C 28.548 -2.3249 27.598 0 CFG=1
M  V30 3 C 30.0414 -2.1069 27.7783 0
M  V30 4 C 27.9554 -1.5197 26.3919 0 CFG=1
M  V30 5 C 30.5092 -1.4227 28.9131 0
M  V30 6 C 30.9802 -2.5575 26.8373 0
M  V30 7 N 26.4971 -1.796 26.2905 0
M  V30 8 C 28.205 -0.0213 26.6139 0
M  V30 9 C 31.874 -1.1897 29.0957 0
M  V30 10 C 32.3449 -2.3242 27.0212 0
M  V30 11 C 25.6824 -0.6966 26.7988 0
M  V30 12 C 32.7909 -1.639 28.1488 0
M  V30 END ATOM
M  V30 BEGIN BOND
M  V30 1 1 1 2
M  V30 2 1 2 3
M  V30 3 1 2 4
M  V30 4 2 3 5
M  V30 5 1 3 6
M  V30 6 1 4 7
M  V30 7 1 4 8
M  V30 8 1 5 9
M  V30 9 2 6 10
M  V30 10 1 7 11
M  V30 11 2 9 12
M  V30 12 1 10 12
M  V30 END BOND
M  V30 BEGIN COLLECTION
M  V30 MDLV30/STEABS ATOMS=(2 2 4)
M  V30 END COLLECTION
M  V30 END CTAB
M  END
>  <Molecule Name>
ZINC000000020259

>  <minimizedAffinity>
-5.75273

$$$$
ZINC000000967521
Actelion Java MolfileCreator 2.0

  0  0  0  0  0  0              0 V3000
M  V30 BEGIN CTAB
M  V30 COUNTS 11 12 0 0 0
M  V30 BEGIN ATOM
M  V30 1 O 32.6882 -0.3783 25.9416 0
M  V30 2 C 32.9011 0.3358 26.9092 0
M  V30 3 C 32.955 -0.1176 28.3717 0 CFG=2
M  V30 4 C 33.1839 1.8235 26.8435 0
M  V30 5 C 32.4074 1.158 29.0687 0
M  V30 6 C 34.467 -0.0961 28.6932 0
M  V30 7 C 32.2599 -1.4283 28.6511 0
M  V30 8 C 33.4378 2.0738 28.3509 0 CFG=1
M  V30 9 C 32.5342 1.1651 30.6045 0
M  V30 10 C 30.9349 1.4849 28.7482 0
M  V30 11 C 34.7953 1.4138 28.7028 0
M  V30 END ATOM
M  V30 BEGIN BOND
M  V30 1 2 1 2
M  V30 2 1 2 3
M  V30 3 1 2 4
M  V30 4 1 3 5
M  V30 5 1 3 6
M  V30 6 1 3 7
M  V30 7 1 4 8
M  V30 8 1 5 9
M  V30 9 1 5 10
M  V30 10 1 6 11
M  V30 11 1 5 8
M  V30 12 1 8 11
M  V30 END BOND
M  V30 BEGIN COLLECTION
M  V30 MDLV30/STEABS ATOMS=(2 3 8)
M  V30 END COLLECTION
M  V30 END CTAB
M  END
>  <Molecule Name>
ZINC000000967521

>  <minimizedAffinity>
-5.73736

$$$$
ZINC000001530283
Actelion Java MolfileCreator 2.0

  0  0  0  0  0  0              0 V3000
M  V30 BEGIN CTAB
M  V30 COUNTS 13 12 0 0 0
M  V30 BEGIN ATOM
M  V30 1 O 31.4974 -1.4718 27.7866 0
M  V30 2 C 31.2366 -2.4196 27.0615 0
M  V30 3 N 29.9938 -2.9204 26.8554 0
M  V30 4 N 32.1952 -3.0693 26.366 0
M  V30 5 C 28.8101 -2.3981 27.5329 0 CFG=2
M  V30 6 C 27.8315 -3.5601 27.6842 0
M  V30 7 C 28.1421 -1.2718 26.7422 0
M  V30 8 O 27.7895 -4.3481 28.6188 0
M  V30 9 O 26.9901 -3.6885 26.6397 0
M  V30 10 C 27.448 -0.2438 27.6361 0
M  V30 11 C 26.0185 -0.6292 27.8991 0
M  V30 12 O 25.5729 -1.1843 28.889 0
M  V30 13 O 25.2072 -0.2959 26.877 0
M  V30 END ATOM
M  V30 BEGIN BOND
M  V30 1 2 1 2
M  V30 2 1 2 3
M  V30 3 1 2 4
M  V30 4 1 3 5
M  V30 5 1 5 6
M  V30 6 1 5 7
M  V30 7 2 6 8
M  V30 8 1 6 9
M  V30 9 1 7 10
M  V30 10 1 10 11
M  V30 11 2 11 12
M  V30 12 1 11 13
M  V30 END BOND
M  V30 BEGIN COLLECTION
M  V30 MDLV30/STEABS ATOMS=(1 5)
M  V30 END COLLECTION
M  V30 END CTAB
M  END
>  <Molecule Name>
ZINC000001530283

>  <minimizedAffinity>
-5.67490

$$$$
ZINC000001530303
Actelion Java MolfileCreator 2.0

  0  0  0  0  0  0              0 V3000
M  V30 BEGIN CTAB
M  V30 COUNTS 14 13 0 0 0
M  V30 BEGIN ATOM
M  V30 1 O 30.2745 1.2877 28.025 0
M  V30 2 C 30.0004 0.4121 27.2152 0
M  V30 3 N 28.7177 0.1942 26.7511 0
M  V30 4 C 31.023 -0.5642 26.5858 0 CFG=2
M  V30 5 C 27.5815 0.9953 27.1537 0
M  V30 6 O 30.5379 -0.9584 25.2906 0
M  V30 7 C 31.4265 -1.8049 27.4331 0
M  V30 8 C 26.4015 0.1517 27.6205 0
M  V30 9 C 30.2032 -2.4067 28.1615 0
M  V30 10 C 32.0307 -2.87 26.4856 0
M  V30 11 C 32.5203 -1.4343 28.456 0
M  V30 12 C 25.9031 -0.8191 26.5595 0
M  V30 13 O 29.2623 -2.9753 27.2565 0
M  V30 14 O 24.4979 -0.6458 26.4106 0
M  V30 END ATOM
M  V30 BEGIN BOND
M  V30 1 2 1 2
M  V30 2 1 2 3
M  V30 3 1 2 4
M  V30 4 1 3 5
M  V30 5 1 4 6
M  V30 6 1 4 7
M  V30 7 1 5 8
M  V30 8 1 7 9
M  V30 9 1 7 10
M  V30 10 1 7 11
M  V30 11 1 8 12
M  V30 12 1 9 13
M  V30 13 1 12 14
M  V30 END BOND
M  V30 BEGIN COLLECTION
M  V30 MDLV30/STEABS ATOMS=(1 4)
M  V30 END COLLECTION
M  V30 END CTAB
M  END
>  <Molecule Name>
ZINC000001530303

>  <minimizedAffinity>
-5.62824

$$$$
ZINC000006661227
Actelion Java MolfileCreator 2.0

  0  0  0  0  0  0              0 V3000
M  V30 BEGIN CTAB
M  V30 COUNTS 11 11 0 0 0
M  V30 BEGIN ATOM
M  V30 1 O 25.7977 -2.4538 28.6531 0
M  V30 2 C 26.2801 -2.1975 27.5601 0
M  V30 3 O 27.0716 -3.0995 26.9422 0
M  V30 4 C 26.1414 -0.8935 26.7792 0 CFG=1
M  V30 5 N 24.7037 -0.6151 26.5279 0
M  V30 6 C 26.8424 0.2108 27.5839 0
M  V30 7 C 28.2841 0.3532 27.2363 0
M  V30 8 N 28.8829 -0.5293 26.3651 0
M  V30 9 C 29.1993 1.2873 27.6715 0
M  V30 10 C 30.1332 -0.1393 26.2738 0
M  V30 11 N 30.3721 0.9587 27.0491 0
M  V30 END ATOM
M  V30 BEGIN BOND
M  V30 1 2 1 2
M  V30 2 1 2 3
M  V30 3 1 2 4
M  V30 4 1 4 5
M  V30 5 1 4 6
M  V30 6 1 6 7
M  V30 7 1 7 8
M  V30 8 2 7 9
M  V30 9 2 8 10
M  V30 10 1 9 11
M  V30 11 1 10 11
M  V30 END BOND
M  V30 BEGIN COLLECTION
M  V30 MDLV30/STEABS ATOMS=(1 4)
M  V30 END COLLECTION
M  V30 END CTAB
M  END
>  <Molecule Name>
ZINC000006661227

>  <minimizedAffinity>
-5.27660

$$$$
ZINC000001482113
Actelion Java MolfileCreator 2.0

  0  0  0  0  0  0              0 V3000
M  V30 BEGIN CTAB
M  V30 COUNTS 10 9 0 0 0
M  V30 BEGIN ATOM
M  V30 1 O 27.903 -4.3329 28.7133 0
M  V30 2 C 27.8605 -3.591 27.7433 0
M  V30 3 O 26.9847 -3.8205 26.7461 0
M  V30 4 C 28.7123 -2.3344 27.5226 0 CFG=1
M  V30 5 N 30.0792 -2.7209 27.1029 0
M  V30 6 C 28.0668 -1.4276 26.4712 0
M  V30 7 C 27.3165 -0.246 27.0883 0
M  V30 8 C 25.9554 -0.6582 27.5759 0
M  V30 9 O 25.6439 -1.0014 28.7032 0
M  V30 10 O 25.035 -0.6215 26.5924 0
M  V30 END ATOM
M  V30 BEGIN BOND
M  V30 1 2 1 2
M  V30 2 1 2 3
M  V30 3 1 2 4
M  V30 4 1 4 5
M  V30 5 1 4 6
M  V30 6 1 6 7
M  V30 7 1 7 8
M  V30 8 2 8 9
M  V30 9 1 8 10
M  V30 END BOND
M  V30 BEGIN COLLECTION
M  V30 MDLV30/STEABS ATOMS=(1 4)
M  V30 END COLLECTION
M  V30 END CTAB
M  END
>  <Molecule Name>
ZINC000001482113

>  <minimizedAffinity>
-5.27348

$$$$
ZINC000003645145
Actelion Java MolfileCreator 2.0

  0  0  0  0  0  0              0 V3000
M  V30 BEGIN CTAB
M  V30 COUNTS 9 8 0 0 0
M  V30 BEGIN ATOM
M  V30 1 O 28.4746 0.2747 26.4228 0
M  V30 2 C 27.3763 0.2797 26.9593 0
M  V30 3 O 26.8809 1.4192 27.4859 0
M  V30 4 C 26.4517 -0.9258 27.1717 0 CFG=1
M  V30 5 N 25.1174 -0.6192 26.6206 0
M  V30 6 C 27.0986 -2.1543 26.5113 0
M  V30 7 C 27.3748 -3.355 27.4388 0
M  V30 8 C 28.7131 -3.1539 28.1565 0
M  V30 9 C 26.2644 -3.5657 28.4687 0
M  V30 END ATOM
M  V30 BEGIN BOND
M  V30 1 2 1 2
M  V30 2 1 2 3
M  V30 3 1 2 4
M  V30 4 1 4 5
M  V30 5 1 4 6
M  V30 6 1 6 7
M  V30 7 1 7 8
M  V30 8 1 7 9
M  V30 END BOND
M  V30 BEGIN COLLECTION
M  V30 MDLV30/STEABS ATOMS=(1 4)
M  V30 END COLLECTION
M  V30 END CTAB
M  END
>  <Molecule Name>
ZINC000003645145

>  <minimizedAffinity>
-5.23451

$$$$
ZINC000001532522
Actelion Java MolfileCreator 2.0

  0  0  0  0  0  0              0 V3000
M  V30 BEGIN CTAB
M  V30 COUNTS 10 9 0 0 0
M  V30 BEGIN ATOM
M  V30 1 O 25.7406 -1.1896 28.628 0
M  V30 2 C 25.9501 -0.6389 27.5573 0
M  V30 3 O 25.0208 -0.6784 26.5794 0
M  V30 4 C 27.2294 0.0931 27.1334 0 CFG=1
M  V30 5 N 27.1122 1.5233 27.4795 0
M  V30 6 C 28.4262 -0.5866 27.8157 0
M  V30 7 C 28.8932 -1.907 27.1902 0
M  V30 8 C 28.9766 -3.0611 28.1944 0
M  V30 9 C 27.7418 -3.9648 28.1634 0
M  V30 10 N 26.9638 -3.7681 26.9459 0
M  V30 END ATOM
M  V30 BEGIN BOND
M  V30 1 2 1 2
M  V30 2 1 2 3
M  V30 3 1 2 4
M  V30 4 1 4 5
M  V30 5 1 4 6
M  V30 6 1 6 7
M  V30 7 1 7 8
M  V30 8 1 8 9
M  V30 9 1 9 10
M  V30 END BOND
M  V30 BEGIN COLLECTION
M  V30 MDLV30/STEABS ATOMS=(1 4)
M  V30 END COLLECTION
M  V30 END CTAB
M  END
>  <Molecule Name>
ZINC000001532522

>  <minimizedAffinity>
-5.16550

$$$$
ZINC000003581355
Actelion Java MolfileCreator 2.0

  0  0  0  0  0  0              0 V3000
M  V30 BEGIN CTAB
M  V30 COUNTS 9 8 0 0 0
M  V30 BEGIN ATOM
M  V30 1 O 25.7399 -3.0325 28.6376 0
M  V30 2 C 26.3017 -2.7254 27.5987 0
M  V30 3 O 26.8953 -3.6817 26.8471 0
M  V30 4 C 26.464 -1.3068 27.0236 0 CFG=1
M  V30 5 N 25.147 -0.6967 26.7142 0
M  V30 6 C 27.3304 -0.4154 27.9496 0 CFG=2
M  V30 7 C 27.3947 1.0548 27.4775 0
M  V30 8 C 28.7352 -1.0133 28.106 0
M  V30 9 C 28.6217 1.3619 26.6284 0
M  V30 END ATOM
M  V30 BEGIN BOND
M  V30 1 2 1 2
M  V30 2 1 2 3
M  V30 3 1 2 4
M  V30 4 1 4 5
M  V30 5 1 4 6
M  V30 6 1 6 7
M  V30 7 1 6 8
M  V30 8 1 7 9
M  V30 END BOND
M  V30 BEGIN COLLECTION
M  V30 MDLV30/STEABS ATOMS=(2 4 6)
M  V30 END COLLECTION
M  V30 END CTAB
M  END
>  <Molecule Name>
ZINC000003581355

>  <minimizedAffinity>
-5.08437

$$$$
ZINC000000000882
Actelion Java MolfileCreator 2.0

  0  0  0  0  0  0              0 V3000
M  V30 BEGIN CTAB
M  V30 COUNTS 10 11 0 0 0
M  V30 BEGIN ATOM
M  V30 1 N 27.7025 -3.6678 28.0501 0
M  V30 2 C 28.4925 -2.6502 27.6341 0
M  V30 3 C 26.4069 -3.4014 28.3319 0
M  V30 4 N 29.8106 -2.9202 27.3473 0
M  V30 5 C 27.9268 -1.3697 27.5165 0
M  V30 6 N 25.7562 -2.2214 28.2571 0
M  V30 7 N 28.4394 -0.1453 27.1297 0
M  V30 8 C 26.5864 -1.255 27.8413 0
M  V30 9 C 27.4237 0.6881 27.2215 0
M  V30 10 N 26.2842 0.0612 27.6476 0
M  V30 END ATOM
M  V30 BEGIN BOND
M  V30 1 2 1 2
M  V30 2 1 1 3
M  V30 3 1 2 4
M  V30 4 1 2 5
M  V30 5 2 3 6
M  V30 6 1 5 7
M  V30 7 2 5 8
M  V30 8 2 7 9
M  V30 9 1 8 10
M  V30 10 1 6 8
M  V30 11 1 9 10
M  V30 END BOND
M  V30 END CTAB
M  END
>  <Molecule Name>
ZINC000000000882

>  <minimizedAffinity>
-5.07541

$$$$
ZINC000000901791
Actelion Java MolfileCreator 2.0

  0  0  0  0  0  0              0 V3000
M  V30 BEGIN CTAB
M  V30 COUNTS 9 9 0 0 0
M  V30 BEGIN ATOM
M  V30 1 O 25.8244 -0.999 28.5055 0
M  V30 2 C 25.9547 -1.0871 27.2937 0
M  V30 3 O 24.9764 -0.6513 26.4713 0
M  V30 4 C 27.1675 -1.6331 26.5358 0 CFG=1
M  V30 5 N 28.2595 -0.6244 26.5308 0
M  V30 6 C 27.7421 -2.8794 27.2133 0
M  V30 7 C 28.9968 -0.8941 27.7783 0
M  V30 8 C 29.0475 -2.4169 27.8495 0 CFG=2
M  V30 9 O 30.1332 -2.9113 27.0611 0
M  V30 END ATOM
M  V30 BEGIN BOND
M  V30 1 2 1 2
M  V30 2 1 2 3
M  V30 3 1 2 4
M  V30 4 1 4 5
M  V30 5 1 4 6
M  V30 6 1 5 7
M  V30 7 1 6 8
M  V30 8 1 8 9
M  V30 9 1 7 8
M  V30 END BOND
M  V30 BEGIN COLLECTION
M  V30 MDLV30/STEABS ATOMS=(2 4 8)
M  V30 END COLLECTION
M  V30 END CTAB
M  END
>  <Molecule Name>
ZINC000000901791

>  <minimizedAffinity>
-5.06854

$$$$
ZINC000001532525
Actelion Java MolfileCreator 2.0

  0  0  0  0  0  0              0 V3000
M  V30 BEGIN CTAB
M  V30 COUNTS 12 11 0 0 0
M  V30 BEGIN ATOM
M  V30 1 O 30.9695 -0.7086 25.1913 0
M  V30 2 C 30.1318 -0.5501 26.0667 0
M  V30 3 O 29.1251 0.3316 25.8967 0
M  V30 4 C 30.1075 -1.2213 27.4447 0 CFG=1
M  V30 5 N 29.2999 -0.4077 28.3712 0
M  V30 6 C 29.5651 -2.6485 27.2832 0
M  V30 7 C 28.2714 -2.9012 28.0619 0
M  V30 8 C 27.0734 -3.0195 27.1199 0
M  V30 9 N 26.8451 -1.7686 26.4333 0
M  V30 10 C 25.9994 -0.7714 26.7587 0
M  V30 11 N 24.745 -0.7999 26.4764 0
M  V30 12 N 26.4871 0.2937 27.4002 0
M  V30 END ATOM
M  V30 BEGIN BOND
M  V30 1 2 1 2
M  V30 2 1 2 3
M  V30 3 1 2 4
M  V30 4 1 4 5
M  V30 5 1 4 6
M  V30 6 1 6 7
M  V30 7 1 7 8
M  V30 8 1 8 9
M  V30 9 1 9 10
M  V30 10 2 10 11
M  V30 11 1 10 12
M  V30 END BOND
M  V30 BEGIN COLLECTION
M  V30 MDLV30/STEABS ATOMS=(1 4)
M  V30 END COLLECTION
M  V30 END CTAB
M  END
>  <Molecule Name>
ZINC000001532525

>  <minimizedAffinity>
-5.01414

$$$$
ZINC000000895032
Actelion Java MolfileCreator 2.0

  0  0  0  0  0  0              0 V3000
M  V30 BEGIN CTAB
M  V30 COUNTS 9 8 0 0 0
M  V30 BEGIN ATOM
M  V30 1 O 28.4679 0.0872 26.5109 0
M  V30 2 C 27.3899 0.2047 27.0744 0
M  V30 3 O 26.959 1.4149 27.4799 0
M  V30 4 C 26.4278 -0.9289 27.4427 0 CFG=1
M  V30 5 N 25.14 -0.712 26.7398 0
M  V30 6 C 27.0558 -2.2559 27.0386 0
M  V30 7 C 26.7267 -3.3036 28.0603 0
M  V30 8 O 27.5165 -4.0725 28.5807 0
M  V30 9 O 25.4189 -3.3401 28.3702 0
M  V30 END ATOM
M  V30 BEGIN BOND
M  V30 1 2 1 2
M  V30 2 1 2 3
M  V30 3 1 2 4
M  V30 4 1 4 5
M  V30 5 1 4 6
M  V30 6 1 6 7
M  V30 7 2 7 8
M  V30 8 1 7 9
M  V30 END BOND
M  V30 BEGIN COLLECTION
M  V30 MDLV30/STEABS ATOMS=(1 4)
M  V30 END COLLECTION
M  V30 END CTAB
M  END
>  <Molecule Name>
ZINC000000895032

>  <minimizedAffinity>
-4.98701

$$$$
ZINC000000895457
Actelion Java MolfileCreator 2.0

  0  0  0  0  0  0              0 V3000
M  V30 BEGIN CTAB
M  V30 COUNTS 9 9 0 0 0
M  V30 BEGIN ATOM
M  V30 1 O 26.4958 0.7246 27.5102 0
M  V30 2 C 26.2602 -0.3982 27.0928 0
M  V30 3 O 25.0396 -0.692 26.5897 0
M  V30 4 C 27.241 -1.5579 26.9888 0 CFG=2
M  V30 5 N 26.6347 -2.8248 27.4433 0
M  V30 6 C 28.4326 -1.4209 27.9224 0
M  V30 7 C 27.7468 -3.7404 27.7001 0
M  V30 8 C 28.9476 -2.8494 28.0452 0 CFG=1
M  V30 9 O 30.0179 -3.0587 27.1249 0
M  V30 END ATOM
M  V30 BEGIN BOND
M  V30 1 2 1 2
M  V30 2 1 2 3
M  V30 3 1 2 4
M  V30 4 1 4 5
M  V30 5 1 4 6
M  V30 6 1 5 7
M  V30 7 1 6 8
M  V30 8 1 8 9
M  V30 9 1 7 8
M  V30 END BOND
M  V30 BEGIN COLLECTION
M  V30 MDLV30/STEABS ATOMS=(2 4 8)
M  V30 END COLLECTION
M  V30 END CTAB
M  END
>  <Molecule Name>
ZINC000000895457

>  <minimizedAffinity>
-4.96678

$$$$
ZINC000001532526
Actelion Java MolfileCreator 2.0

  0  0  0  0  0  0              0 V3000
M  V30 BEGIN CTAB
M  V30 COUNTS 10 9 0 0 0
M  V30 BEGIN ATOM
M  V30 1 O 26.8887 -0.2655 26.7986 0
M  V30 2 C 26.1206 -1.1606 27.1186 0
M  V30 3 O 24.8436 -1.1506 26.6911 0
M  V30 4 C 26.4634 -2.3883 27.9722 0 CFG=1
M  V30 5 N 25.2658 -3.2504 28.1168 0
M  V30 6 C 27.6173 -3.172 27.3411 0
M  V30 7 C 28.926 -3.0272 28.1172 0
M  V30 8 C 29.9568 -2.2357 27.344 0
M  V30 9 O 30.8856 -2.7233 26.7129 0
M  V30 10 N 29.773 -0.8848 27.3921 0
M  V30 END ATOM
M  V30 BEGIN BOND
M  V30 1 2 1 2
M  V30 2 1 2 3
M  V30 3 1 2 4
M  V30 4 1 4 5
M  V30 5 1 4 6
M  V30 6 1 6 7
M  V30 7 1 7 8
M  V30 8 2 8 9
M  V30 9 1 8 10
M  V30 END BOND
M  V30 BEGIN COLLECTION
M  V30 MDLV30/STEABS ATOMS=(1 4)
M  V30 END COLLECTION
M  V30 END CTAB
M  END
>  <Molecule Name>
ZINC000001532526

>  <minimizedAffinity>
-4.95265

$$$$
ZINC000000901736
Actelion Java MolfileCreator 2.0

  0  0  0  0  0  0              0 V3000
M  V30 BEGIN CTAB
M  V30 COUNTS 9 9 0 0 0
M  V30 BEGIN ATOM
M  V30 1 O 25.8837 -0.9977 28.5616 0
M  V30 2 C 26.0255 -1.0463 27.3503 0
M  V30 3 O 24.9884 -0.7381 26.5385 0
M  V30 4 C 27.2618 -1.5147 26.5896 0 CFG=1
M  V30 5 N 28.3586 -0.5207 26.6762 0
M  V30 6 C 27.8705 -2.808 27.1383 0
M  V30 7 C 29.5735 -1.2825 26.3779 0
M  V30 8 C 29.3669 -2.5239 27.2387 0 CFG=1
M  V30 9 O 29.6978 -2.2299 28.5972 0
M  V30 END ATOM
M  V30 BEGIN BOND
M  V30 1 2 1 2
M  V30 2 1 2 3
M  V30 3 1 2 4
M  V30 4 1 4 5
M  V30 5 1 4 6
M  V30 6 1 5 7
M  V30 7 1 6 8
M  V30 8 1 8 9
M  V30 9 1 7 8
M  V30 END BOND
M  V30 BEGIN COLLECTION
M  V30 MDLV30/STEABS ATOMS=(2 4 8)
M  V30 END COLLECTION
M  V30 END CTAB
M  END
>  <Molecule Name>
ZINC000000901736

>  <minimizedAffinity>
-4.83068

$$$$
ZINC000000895099
Actelion Java MolfileCreator 2.0

  0  0  0  0  0  0              0 V3000
M  V30 BEGIN CTAB
M  V30 COUNTS 8 7 0 0 0
M  V30 BEGIN ATOM
M  V30 1 O 27.3181 -3.6503 26.9469 0
M  V30 2 C 26.593 -2.7475 27.3328 0
M  V30 3 O 25.6508 -2.995 28.272 0
M  V30 4 C 26.6367 -1.2789 26.8759 0 CFG=1
M  V30 5 N 25.2616 -0.7549 26.663 0
M  V30 6 C 27.4131 -0.3715 27.8557 0
M  V30 7 C 28.8758 -0.783 28.0532 0
M  V30 8 C 27.3405 1.102 27.4425 0
M  V30 END ATOM
M  V30 BEGIN BOND
M  V30 1 2 1 2
M  V30 2 1 2 3
M  V30 3 1 2 4
M  V30 4 1 4 5
M  V30 5 1 4 6
M  V30 6 1 6 7
M  V30 7 1 6 8
M  V30 END BOND
M  V30 BEGIN COLLECTION
M  V30 MDLV30/STEABS ATOMS=(1 4)
M  V30 END COLLECTION
M  V30 END CTAB
M  END
>  <Molecule Name>
ZINC000000895099

>  <minimizedAffinity>
-4.79092

$$$$
ZINC000000895360
Actelion Java MolfileCreator 2.0

  0  0  0  0  0  0              0 V3000
M  V30 BEGIN CTAB
M  V30 COUNTS 8 8 0 0 0
M  V30 BEGIN ATOM
M  V30 1 O 25.8274 -0.9991 28.6014 0
M  V30 2 C 25.9803 -1.2028 27.4081 0
M  V30 3 O 25.0411 -0.7731 26.5335 0
M  V30 4 C 27.1236 -1.9376 26.6983 0 CFG=1
M  V30 5 N 28.3679 -1.1274 26.6735 0
M  V30 6 C 27.4851 -3.2251 27.4357 0
M  V30 7 C 29.082 -1.4934 27.9004 0
M  V30 8 C 28.8825 -2.9918 27.9939 0
M  V30 END ATOM
M  V30 BEGIN BOND
M  V30 1 2 1 2
M  V30 2 1 2 3
M  V30 3 1 2 4
M  V30 4 1 4 5
M  V30 5 1 4 6
M  V30 6 1 5 7
M  V30 7 1 6 8
M  V30 8 1 7 8
M  V30 END BOND
M  V30 BEGIN COLLECTION
M  V30 MDLV30/STEABS ATOMS=(1 4)
M  V30 END COLLECTION
M  V30 END CTAB
M  END
>  <Molecule Name>
ZINC000000895360

>  <minimizedAffinity>
-4.74524

$$$$
ZINC000000895103
Actelion Java MolfileCreator 2.0

  0  0  0  0  0  0              0 V3000
M  V30 BEGIN CTAB
M  V30 COUNTS 8 7 0 0 0
M  V30 BEGIN ATOM
M  V30 1 O 26.3793 0.0901 27.7566 0
M  V30 2 C 26.109 -0.7607 26.922 0
M  V30 3 O 24.8834 -0.8025 26.3638 0
M  V30 4 C 27.0517 -1.8453 26.4005 0 CFG=1
M  V30 5 N 28.4507 -1.33 26.4631 0
M  V30 6 C 26.8912 -3.137 27.2353 0 CFG=2
M  V30 7 O 25.7876 -2.9914 28.1405 0
M  V30 8 C 28.1169 -3.4643 28.0838 0
M  V30 END ATOM
M  V30 BEGIN BOND
M  V30 1 2 1 2
M  V30 2 1 2 3
M  V30 3 1 2 4
M  V30 4 1 4 5
M  V30 5 1 4 6
M  V30 6 1 6 7
M  V30 7 1 6 8
M  V30 END BOND
M  V30 BEGIN COLLECTION
M  V30 MDLV30/STEABS ATOMS=(2 4 6)
M  V30 END COLLECTION
M  V30 END CTAB
M  END
>  <Molecule Name>
ZINC000000895103

>  <minimizedAffinity>
-4.62609

$$$$
ZINC000003589203
Actelion Java MolfileCreator 2.0

  0  0  0  0  0  0              0 V3000
M  V30 BEGIN CTAB
M  V30 COUNTS 10 9 0 0 0
M  V30 BEGIN ATOM
M  V30 1 S 27.774 1.0865 27.4052 0
M  V30 2 C 26.8572 -0.4868 27.2151 0
M  V30 3 C 27.609 -1.7089 27.755 0 CFG=2
M  V30 4 N 28.8407 -1.9629 27.0044 0
M  V30 5 C 26.6783 -2.9241 27.8013 0
M  V30 6 C 30.0307 -2.2224 27.6361 0
M  V30 7 O 25.7469 -3.0758 28.5787 0
M  V30 8 O 26.927 -3.8619 26.8631 0
M  V30 9 O 30.1765 -2.1676 28.852 0
M  V30 10 C 31.1622 -2.5428 26.6985 0
M  V30 END ATOM
M  V30 BEGIN BOND
M  V30 1 1 1 2
M  V30 2 1 2 3
M  V30 3 1 3 4
M  V30 4 1 3 5
M  V30 5 1 4 6
M  V30 6 2 5 7
M  V30 7 1 5 8
M  V30 8 2 6 9
M  V30 9 1 6 10
M  V30 END BOND
M  V30 BEGIN COLLECTION
M  V30 MDLV30/STEABS ATOMS=(1 3)
M  V30 END COLLECTION
M  V30 END CTAB
M  END
>  <Molecule Name>
ZINC000003589203

>  <minimizedAffinity>
-4.51405

$$$$
ZINC000000895034
Actelion Java MolfileCreator 2.0

  0  0  0  0  0  0              0 V3000
M  V30 BEGIN CTAB
M  V30 COUNTS 7 6 0 0 0
M  V30 BEGIN ATOM
M  V30 1 O 26.5794 0.3559 27.4858 0
M  V30 2 C 26.0571 -0.7408 27.3535 0
M  V30 3 O 24.8693 -0.8545 26.7244 0
M  V30 4 C 26.5754 -2.0681 27.89 0 CFG=1
M  V30 5 N 25.4446 -2.976 28.2143 0
M  V30 6 C 27.502 -2.6871 26.837 0
M  V30 7 O 27.8187 -4.0348 27.1944 0
M  V30 END ATOM
M  V30 BEGIN BOND
M  V30 1 2 1 2
M  V30 2 1 2 3
M  V30 3 1 2 4
M  V30 4 1 4 5
M  V30 5 1 4 6
M  V30 6 1 6 7
M  V30 END BOND
M  V30 BEGIN COLLECTION
M  V30 MDLV30/STEABS ATOMS=(1 4)
M  V30 END COLLECTION
M  V30 END CTAB
M  END
>  <Molecule Name>
ZINC000000895034

>  <minimizedAffinity>
-4.39216

$$$$
ZINC000242548690
Actelion Java MolfileCreator 2.0

  0  0  0  0  0  0              0 V3000
M  V30 BEGIN CTAB
M  V30 COUNTS 55 62 0 0 0
M  V30 BEGIN ATOM
M  V30 1 O 30.7131 1.5864 32.4269 0
M  V30 2 C 31.7054 1.4894 31.7293 0
M  V30 3 O 32.9917 1.5882 32.1576 0
M  V30 4 C 31.6973 1.246 30.2896 0
M  V30 5 C 33.8686 1.4187 31.0451 0
M  V30 6 C 32.9669 1.2223 29.8833 0
M  V30 7 C 33.531 0.985 28.5032 0 CFG=2
M  V30 8 C 32.5229 0.5695 27.3704 0 CFG=2
M  V30 9 C 34.6072 -0.1262 28.4752 0
M  V30 10 C 32.5623 -0.9853 27.4132 0 CFG=1
M  V30 11 C 33.0845 1.0636 26.0019 0 CFG=2
M  V30 12 C 31.1025 1.1325 27.5943 0
M  V30 13 C 34.0438 -1.3042 27.6723 0
M  V30 14 O 31.8521 -1.4714 28.5614 0
M  V30 15 C 31.9619 -1.6712 26.1517 0 CFG=1
M  V30 16 O 32.9889 2.4855 25.9023 0
M  V30 17 C 32.4013 0.42 24.7925 0
M  V30 18 C 32.5231 -1.1145 24.8129 0 CFG=2
M  V30 19 C 32.0971 -3.2042 26.225 0
M  V30 20 C 31.8913 -1.8211 23.55 0 CFG=2
M  V30 21 C 31.4962 -3.9008 25.0093 0
M  V30 22 C 32.0505 -3.3718 23.6778 0 CFG=2
M  V30 23 C 32.5639 -1.367 22.2212 0
M  V30 24 C 30.3864 -1.4715 23.4085 0
M  V30 25 C 33.5131 -3.8399 23.4823 0
M  V30 26 C 34.0062 -1.8441 22.0552 0
M  V30 27 C 34.1136 -3.3671 22.1538 0 CFG=2
M  V30 28 O 33.4017 -3.9298 21.0457 0
M  V30 29 C 33.8326 -3.4409 19.7771 0 CFG=2
M  V30 30 O 32.9394 -2.4656 19.2453 0
M  V30 31 C 34.0392 -4.6188 18.8349 0
M  V30 32 C 31.67 -2.9396 18.7729 0 CFG=1
M  V30 33 C 32.7028 -5.2171 18.4244 0 CFG=1
M  V30 34 C 31.7936 -4.141 17.8171 0 CFG=2
M  V30 35 C 30.7029 -3.203 19.9239 0
M  V30 36 O 32.9339 -6.2556 17.4635 0
M  V30 37 O 32.4192 -3.7336 16.5778 0
M  V30 38 C 33.7825 -3.3424 16.7413 0 CFG=2
M  V30 39 O 33.8718 -1.9228 16.6435 0
M  V30 40 C 34.5744 -3.9789 15.6062 0
M  V30 41 C 35.2134 -1.4583 16.83 0 CFG=1
M  V30 42 C 36.0266 -3.5279 15.6409 0 CFG=1
M  V30 43 C 36.1431 -1.9911 15.7191 0 CFG=2
M  V30 44 C 35.1662 0.0674 16.8353 0
M  V30 45 O 36.6718 -4.1295 16.7681 0
M  V30 46 O 37.4771 -1.54 15.9999 0
M  V30 47 C 38.0668 -2.109 17.1656 0 CFG=2
M  V30 48 O 37.4917 -1.4787 18.3131 0
M  V30 49 C 39.562 -1.8076 17.113 0
M  V30 50 C 38.0173 -2.0102 19.5353 0 CFG=1
M  V30 51 C 40.2451 -2.269 18.3892 0 CFG=1
M  V30 52 C 39.5278 -1.7275 19.635 0 CFG=2
M  V30 53 C 37.2445 -1.3613 20.6789 0
M  V30 54 O 40.2457 -3.7016 18.4293 0
M  V30 55 O 40.1063 -2.3547 20.7847 0
M  V30 END ATOM
M  V30 BEGIN BOND
M  V30 1 2 1 2
M  V30 2 1 2 3
M  V30 3 1 2 4
M  V30 4 1 3 5
M  V30 5 2 4 6
M  V30 6 1 6 7
M  V30 7 1 7 8
M  V30 8 1 7 9
M  V30 9 1 8 10
M  V30 10 1 8 11
M  V30 11 1 8 12
M  V30 12 1 9 13
M  V30 13 1 10 14
M  V30 14 1 10 15
M  V30 15 1 11 16
M  V30 16 1 11 17
M  V30 17 1 15 18
M  V30 18 1 15 19
M  V30 19 1 18 20
M  V30 20 1 19 21
M  V30 21 1 20 22
M  V30 22 1 20 23
M  V30 23 1 20 24
M  V30 24 1 22 25
M  V30 25 1 23 26
M  V30 26 1 25 27
M  V30 27 1 27 28
M  V30 28 1 28 29
M  V30 29 1 29 30
M  V30 30 1 29 31
M  V30 31 1 30 32
M  V30 32 1 31 33
M  V30 33 1 32 34
M  V30 34 1 32 35
M  V30 35 1 33 36
M  V30 36 1 34 37
M  V30 37 1 37 38
M  V30 38 1 38 39
M  V30 39 1 38 40
M  V30 40 1 39 41
M  V30 41 1 40 42
M  V30 42 1 41 43
M  V30 43 1 41 44
M  V30 44 1 42 45
M  V30 45 1 43 46
M  V30 46 1 46 47
M  V30 47 1 47 48
M  V30 48 1 47 49
M  V30 49 1 48 50
M  V30 50 1 49 51
M  V30 51 1 50 52
M  V30 52 1 50 53
M  V30 53 1 51 54
M  V30 54 1 52 55
M  V30 55 1 5 6
M  V30 56 1 10 13
M  V30 57 1 17 18
M  V30 58 1 21 22
M  V30 59 1 26 27
M  V30 60 1 33 34
M  V30 61 1 42 43
M  V30 62 1 51 52
M  V30 END BOND
M  V30 BEGIN COLLECTION
M  V30 MDLV30/STEABS ATOMS=(21 7 8 10 11 15 18 20 22 27 29 32 33 34 38 41 42 43 47 50 51 52)
M  V30 END COLLECTION
M  V30 END CTAB
M  END
>  <Molecule Name>
ZINC000242548690

>  <minimizedAffinity>
-4.27888

$$$$
ZINC000003920027
Actelion Java MolfileCreator 2.0

  0  0  0  0  0  0              0 V3000
M  V30 BEGIN CTAB
M  V30 COUNTS 34 37 0 0 0
M  V30 BEGIN ATOM
M  V30 1 S 38.8408 -1.2136 17.645 0
M  V30 2 C 37.1617 -1.6838 17.9411 0
M  V30 3 C 39.6126 -2.4506 18.7056 0
M  V30 4 O 36.6174 -1.3326 18.9811 0
M  V30 5 C 36.473 -2.5319 16.8166 0 CFG=2
M  V30 6 F 39.8387 -1.8998 19.9299 0
M  V30 7 O 35.5061 -1.7854 16.0283 0
M  V30 8 C 35.8313 -3.8953 17.3322 0 CFG=2
M  V30 9 C 37.5465 -3.0792 15.7811 0 CFG=1
M  V30 10 C 35.0589 -0.5749 16.4585 0
M  V30 11 C 35.6982 -4.653 15.9891 0 CFG=1
M  V30 12 C 34.4175 -3.8073 17.9462 0
M  V30 13 C 36.7914 -4.6348 18.3149 0
M  V30 14 C 37.0852 -4.5075 15.3754 0
M  V30 15 C 37.7419 -2.2356 14.5166 0
M  V30 16 O 34.1294 -0.4102 17.2334 0
M  V30 17 C 35.8818 0.5186 15.8236 0
M  V30 18 C 35.1054 -6.0697 16.1122 0 CFG=1
M  V30 19 C 33.7239 -5.1792 18.1063 0 CFG=1
M  V30 20 C 35.0638 1.7732 15.5744 0
M  V30 21 C 33.6881 -5.983 16.7706 0 CFG=1
M  V30 22 C 35.0275 -6.7406 14.7294 0
M  V30 23 O 34.3354 -5.9136 19.1598 0
M  V30 24 F 32.9262 -5.2096 15.9083 0
M  V30 25 C 32.9768 -7.3973 16.8405 0 CFG=2
M  V30 26 C 34.3508 -8.1039 14.7818 0 CFG=1
M  V30 27 C 32.9922 -8.0022 15.4251 0
M  V30 28 C 31.5433 -7.259 17.3547 0
M  V30 29 C 33.6703 -8.4 17.7921 0
M  V30 30 F 34.2645 -8.5708 13.5033 0
M  V30 31 C 31.8837 -8.3751 14.7598 0
M  V30 32 C 30.4434 -7.6315 16.6866 0
M  V30 33 C 30.5355 -8.2283 15.3413 0
M  V30 34 O 29.5339 -8.5867 14.7358 0
M  V30 END ATOM
M  V30 BEGIN BOND
M  V30 1 1 1 2
M  V30 2 1 1 3
M  V30 3 2 2 4
M  V30 4 1 2 5
M  V30 5 1 3 6
M  V30 6 1 5 7
M  V30 7 1 5 8
M  V30 8 1 5 9
M  V30 9 1 7 10
M  V30 10 1 8 11
M  V30 11 1 8 12
M  V30 12 1 8 13
M  V30 13 1 9 14
M  V30 14 1 9 15
M  V30 15 2 10 16
M  V30 16 1 10 17
M  V30 17 1 11 18
M  V30 18 1 12 19
M  V30 19 1 17 20
M  V30 20 1 18 21
M  V30 21 1 18 22
M  V30 22 1 19 23
M  V30 23 1 21 24
M  V30 24 1 21 25
M  V30 25 1 22 26
M  V30 26 1 25 27
M  V30 27 1 25 28
M  V30 28 1 25 29
M  V30 29 1 26 30
M  V30 30 2 27 31
M  V30 31 2 28 32
M  V30 32 1 31 33
M  V30 33 2 33 34
M  V30 34 1 11 14
M  V30 35 1 19 21
M  V30 36 1 26 27
M  V30 37 1 32 33
M  V30 END BOND
M  V30 BEGIN COLLECTION
M  V30 MDLV30/STEABS ATOMS=(9 5 8 9 11 18 19 21 25 26)
M  V30 END COLLECTION
M  V30 END CTAB
M  END
>  <Molecule Name>
ZINC000003920027

>  <minimizedAffinity>
-4.25120

$$$$
ZINC000000388081
Actelion Java MolfileCreator 2.0

  0  0  0  0  0  0              0 V3000
M  V30 BEGIN CTAB
M  V30 COUNTS 8 8 0 0 0
M  V30 BEGIN ATOM
M  V30 1 N 30.4696 -1.323 26.5135 0
M  V30 2 C 30.4659 -2.4946 27.1051 0
M  V30 3 C 29.1573 -0.9304 26.4782 0
M  V30 4 N 29.2013 -2.8777 27.4499 0
M  V30 5 C 28.342 -1.8852 27.0479 0
M  V30 6 C 26.8679 -1.944 27.2487 0
M  V30 7 C 26.2019 -0.5963 26.9439 0
M  V30 8 N 24.8026 -0.7697 26.5569 0
M  V30 END ATOM
M  V30 BEGIN BOND
M  V30 1 2 1 2
M  V30 2 1 1 3
M  V30 3 1 2 4
M  V30 4 2 3 5
M  V30 5 1 5 6
M  V30 6 1 6 7
M  V30 7 1 7 8
M  V30 8 1 4 5
M  V30 END BOND
M  V30 END CTAB
M  END
>  <Molecule Name>
ZINC000000388081

>  <minimizedAffinity>
-4.21651

$$$$
ZINC000004658553
Actelion Java MolfileCreator 2.0

  0  0  0  0  0  0              0 V3000
M  V30 BEGIN CTAB
M  V30 COUNTS 6 5 0 0 0
M  V30 BEGIN ATOM
M  V30 1 O 27.7321 -2.5804 27.9134 0
M  V30 2 C 26.6252 -2.1508 27.6313 0
M  V30 3 O 25.5195 -2.8086 28.0524 0
M  V30 4 C 26.3074 -0.9159 26.7779 0 CFG=1
M  V30 5 N 24.8483 -0.768 26.5685 0
M  V30 6 C 26.8521 0.3445 27.4346 0
M  V30 END ATOM
M  V30 BEGIN BOND
M  V30 1 2 1 2
M  V30 2 1 2 3
M  V30 3 1 2 4
M  V30 4 1 4 5
M  V30 5 1 4 6
M  V30 END BOND
M  V30 BEGIN COLLECTION
M  V30 MDLV30/STEABS ATOMS=(1 4)
M  V30 END COLLECTION
M  V30 END CTAB
M  END
>  <Molecule Name>
ZINC000004658553

>  <minimizedAffinity>
-4.05609

$$$$
ZINC000085537011
Actelion Java MolfileCreator 2.0

  0  0  0  0  0  0              0 V3000
M  V30 BEGIN CTAB
M  V30 COUNTS 53 58 0 0 0
M  V30 BEGIN ATOM
M  V30 1 O 32.4025 -4.2683 15.5535 0
M  V30 2 C 33.5792 -4.4213 15.8974 0
M  V30 3 C 34.1464 -3.4719 16.9017 0
M  V30 4 C 34.4182 -5.558 15.3071 0 CFG=1
M  V30 5 C 33.2921 -2.733 17.6321 0
M  V30 6 C 35.5717 -3.2526 17.3526 0 CFG=2
M  V30 7 C 34.8918 -6.5889 16.3599 0 CFG=1
M  V30 8 C 33.6575 -6.2185 14.1467 0
M  V30 9 C 33.983 -1.901 18.6631 0 CFG=2
M  V30 10 C 35.4475 -1.9209 18.1608 0 CFG=1
M  V30 11 C 36.6684 -3.1301 16.2737 0
M  V30 12 O 33.8709 -7.5373 16.6932 0
M  V30 13 C 36.0769 -7.3979 15.7854 0
M  V30 14 C 33.8972 -2.5054 20.0583 0 CFG=1
M  V30 15 C 36.4961 -1.7942 19.2511 0
M  V30 16 C 37.8078 -4.1269 16.4086 0
M  V30 17 C 32.6054 -7.2569 16.0957 0 CFG=2
M  V30 18 C 36.8644 -8.2149 16.8161 0
M  V30 19 C 34.7753 -1.7146 21.0316 0 CFG=2
M  V30 20 C 32.5543 -2.4796 20.7657 0
M  V30 21 C 36.2104 -1.6955 20.5664 0
M  V30 22 O 38.8758 -4.0129 15.8245 0
M  V30 23 O 37.4688 -5.1634 17.2062 0
M  V30 24 O 31.7115 -6.7237 17.0689 0
M  V30 25 C 32.0485 -8.5696 15.5546 0
M  V30 26 C 37.5874 -7.4361 17.9276 0
M  V30 27 C 34.4181 -2.3729 22.3682 0
M  V30 28 C 32.9349 -2.7859 22.2243 0 CFG=1
M  V30 29 C 37.2785 -1.495 21.6013 0
M  V30 30 C 38.4118 -6.2267 17.4463 0 CFG=2
M  V30 31 C 30.4297 -6.3898 16.5158 0 CFG=1
M  V30 32 C 30.6661 -8.3591 14.9437 0
M  V30 33 O 32.1376 -2.0492 23.1487 0
M  V30 34 C 39.438 -5.7761 18.5006 0
M  V30 35 C 29.726 -7.658 15.9464 0 CFG=2
M  V30 36 C 29.6325 -5.7449 17.6474 0
M  V30 37 C 32.9072 -1.4827 24.2155 0 CFG=2
M  V30 38 C 38.958 -4.6429 19.4008 0
M  V30 39 N 28.3626 -7.3827 15.4389 0
M  V30 40 O 33.3324 -2.4728 25.1579 0
M  V30 41 C 32.1134 -0.3441 24.8999 0 CFG=2
M  V30 42 C 27.3394 -7.5972 16.4634 0
M  V30 43 C 28.0054 -8.0999 14.2149 0
M  V30 44 C 32.2688 -3.0406 25.9285 0 CFG=2
M  V30 45 O 33.0374 0.3557 25.7627 0
M  V30 46 C 30.9147 -0.9641 25.6451 0 CFG=1
M  V30 47 C 31.4353 -1.9809 26.6785 0 CFG=1
M  V30 48 C 32.9052 -4.0359 26.8954 0
M  V30 49 C 32.875 1.7667 25.7758 0
M  V30 50 O 30.1324 0.0735 26.2672 0
M  V30 51 O 30.3348 -2.645 27.326 0
M  V30 52 C 28.7324 -0.1201 26.1037 0
M  V30 53 C 30.2015 -2.2614 28.6901 0
M  V30 END ATOM
M  V30 BEGIN BOND
M  V30 1 2 1 2
M  V30 2 1 2 3
M  V30 3 1 2 4
M  V30 4 2 3 5
M  V30 5 1 3 6
M  V30 6 1 4 7
M  V30 7 1 4 8
M  V30 8 1 5 9
M  V30 9 1 6 10
M  V30 10 1 6 11
M  V30 11 1 7 12
M  V30 12 1 7 13
M  V30 13 1 9 14
M  V30 14 1 10 15
M  V30 15 1 11 16
M  V30 16 1 12 17
M  V30 17 1 13 18
M  V30 18 1 14 19
M  V30 19 1 14 20
M  V30 20 2 15 21
M  V30 21 2 16 22
M  V30 22 1 16 23
M  V30 23 1 17 24
M  V30 24 1 17 25
M  V30 25 1 18 26
M  V30 26 1 19 27
M  V30 27 1 20 28
M  V30 28 1 21 29
M  V30 29 1 23 30
M  V30 30 1 24 31
M  V30 31 1 25 32
M  V30 32 1 28 33
M  V30 33 1 30 34
M  V30 34 1 31 35
M  V30 35 1 31 36
M  V30 36 1 33 37
M  V30 37 1 34 38
M  V30 38 1 35 39
M  V30 39 1 37 40
M  V30 40 1 37 41
M  V30 41 1 39 42
M  V30 42 1 39 43
M  V30 43 1 40 44
M  V30 44 1 41 45
M  V30 45 1 41 46
M  V30 46 1 44 47
M  V30 47 1 44 48
M  V30 48 1 45 49
M  V30 49 1 46 50
M  V30 50 1 47 51
M  V30 51 1 50 52
M  V30 52 1 51 53
M  V30 53 1 9 10
M  V30 54 1 19 21
M  V30 55 1 26 30
M  V30 56 1 27 28
M  V30 57 1 32 35
M  V30 58 1 46 47
M  V30 END BOND
M  V30 BEGIN COLLECTION
M  V30 MDLV30/STEABS ATOMS=(17 4 6 7 9 10 14 17 19 28 30 31 35 37 41 44 46 47)
M  V30 END COLLECTION
M  V30 END CTAB
M  END
>  <Molecule Name>
ZINC000085537011

>  <minimizedAffinity>
-3.70231

$$$$
ZINC000085432544
Actelion Java MolfileCreator 2.0

  0  0  0  0  0  0              0 V3000
M  V30 BEGIN CTAB
M  V30 COUNTS 59 67 0 0 0
M  V30 BEGIN ATOM
M  V30 1 O 32.119 -5.6723 22.4482 0
M  V30 2 C 33.1439 -5.1066 22.0809 0
M  V30 3 O 34.2938 -5.7911 21.7682 0
M  V30 4 C 33.3158 -3.5367 21.909 0 CFG=1
M  V30 5 C 34.0953 -6.886 20.8716 0
M  V30 6 C 34.2971 -3.1952 20.7284 0
M  V30 7 C 31.8514 -3.0171 21.573 0
M  V30 8 C 34.0844 -3.0633 23.1941 0
M  V30 9 C 35.4896 -2.4577 20.9595 0
M  V30 10 C 34.0615 -3.6657 19.4208 0
M  V30 11 N 31.3243 -3.5171 20.383 0
M  V30 12 C 30.8419 -2.1705 22.0854 0
M  V30 13 C 33.2685 -2.5643 24.3682 0 CFG=1
M  V30 14 O 35.8007 -2.1291 22.2566 0
M  V30 15 C 36.3866 -2.1702 19.9195 0
M  V30 16 C 34.9596 -3.3653 18.4026 0
M  V30 17 C 30.024 -3.1634 20.1817 0
M  V30 18 C 29.6804 -2.3234 21.2257 0
M  V30 19 C 30.7914 -1.1859 23.2406 0
M  V30 20 C 32.0688 -3.429 24.7563 0
M  V30 21 C 34.0443 -2.2299 25.647 0
M  V30 22 C 37.2016 -2.0661 22.5155 0
M  V30 23 C 36.1118 -2.6223 18.6445 0
M  V30 24 C 34.8684 -3.6686 16.9251 0 CFG=1
M  V30 25 C 29.143 -3.5197 19.1536 0
M  V30 26 C 28.3674 -1.7976 21.2416 0
M  V30 27 C 30.3164 -1.7074 24.6306 0
M  V30 28 N 31.1154 -2.6051 25.4819 0
M  V30 29 C 33.1398 -1.395 26.5934 0 CFG=1
M  V30 30 N 36.8759 -2.4628 17.5025 0
M  V30 31 C 36.3277 -3.3398 16.4462 0 CFG=1
M  V30 32 C 34.3213 -5.043 16.5119 0 CFG=1
M  V30 33 C 33.8445 -2.7204 16.2757 0
M  V30 34 C 27.8513 -2.9911 19.197 0
M  V30 35 C 27.4653 -2.1401 20.2271 0
M  V30 36 C 31.7189 -2.0491 26.7013 0
M  V30 37 O 33.7624 -1.4316 27.8895 0
M  V30 38 C 33.0082 0.0937 26.1886 0
M  V30 39 C 37.662 -1.2792 17.2469 0
M  V30 40 C 37.2069 -4.6073 16.2187 0 CFG=1
M  V30 41 N 33.6774 -4.8197 15.1985 0
M  V30 42 C 35.26 -6.2842 16.7303 0 CFG=2
M  V30 43 C 33.5525 -3.3846 14.9429 0
M  V30 44 C 31.8261 0.8276 26.813 0
M  V30 45 O 37.1567 -4.9406 14.8082 0
M  V30 46 C 38.6883 -4.3122 16.5485 0
M  V30 47 C 36.727 -5.8136 17.0632 0 CFG=1
M  V30 48 C 34.1451 -5.5606 14.0406 0
M  V30 49 C 35.2415 -7.226 15.532 0
M  V30 50 C 34.7452 -7.1354 17.9495 0
M  V30 51 O 39.1894 -4.2078 17.6599 0
M  V30 52 O 39.4003 -4.1996 15.3748 0
M  V30 53 O 37.6571 -6.922 16.868 0
M  V30 54 C 34.7195 -6.9 14.3448 0
M  V30 55 C 33.79 -8.2891 17.6349 0
M  V30 56 C 40.0929 -2.9565 15.2443 0
M  V30 57 C 38.1195 -7.5606 17.977 0
M  V30 58 O 37.438 -8.149 18.8033 0
M  V30 59 C 39.6129 -7.4626 18.0309 0
M  V30 END ATOM
M  V30 BEGIN BOND
M  V30 1 2 1 2
M  V30 2 1 2 3
M  V30 3 1 2 4
M  V30 4 1 3 5
M  V30 5 1 4 6
M  V30 6 1 4 7
M  V30 7 1 4 8
M  V30 8 2 6 9
M  V30 9 1 6 10
M  V30 10 1 7 11
M  V30 11 2 7 12
M  V30 12 1 8 13
M  V30 13 1 9 14
M  V30 14 1 9 15
M  V30 15 2 10 16
M  V30 16 1 11 17
M  V30 17 1 12 18
M  V30 18 1 12 19
M  V30 19 1 13 20
M  V30 20 1 13 21
M  V30 21 1 14 22
M  V30 22 2 15 23
M  V30 23 1 16 24
M  V30 24 1 17 25
M  V30 25 1 18 26
M  V30 26 1 19 27
M  V30 27 1 20 28
M  V30 28 1 21 29
M  V30 29 1 23 30
M  V30 30 1 24 31
M  V30 31 1 24 32
M  V30 32 1 24 33
M  V30 33 2 25 34
M  V30 34 2 26 35
M  V30 35 1 28 36
M  V30 36 1 29 37
M  V30 37 1 29 38
M  V30 38 1 30 39
M  V30 39 1 31 40
M  V30 40 1 32 41
M  V30 41 1 32 42
M  V30 42 1 33 43
M  V30 43 1 38 44
M  V30 44 1 40 45
M  V30 45 1 40 46
M  V30 46 1 40 47
M  V30 47 1 41 48
M  V30 48 1 42 49
M  V30 49 1 42 50
M  V30 50 2 46 51
M  V30 51 1 46 52
M  V30 52 1 47 53
M  V30 53 1 48 54
M  V30 54 1 50 55
M  V30 55 1 52 56
M  V30 56 1 53 57
M  V30 57 2 57 58
M  V30 58 1 57 59
M  V30 59 1 16 23
M  V30 60 2 17 18
M  V30 61 1 27 28
M  V30 62 1 29 36
M  V30 63 1 30 31
M  V30 64 1 34 35
M  V30 65 1 41 43
M  V30 66 1 42 47
M  V30 67 2 49 54
M  V30 END BOND
M  V30 BEGIN COLLECTION
M  V30 MDLV30/STEABS ATOMS=(9 4 13 24 29 31 32 40 42 47)
M  V30 END COLLECTION
M  V30 END CTAB
M  END
>  <Molecule Name>
ZINC000085432544

>  <minimizedAffinity>
9.04433

$$$$
ZINC000085555528
Actelion Java MolfileCreator 2.0

  0  0  0  0  0  0              0 V3000
M  V30 BEGIN CTAB
M  V30 COUNTS 59 67 0 0 0
M  V30 BEGIN ATOM
M  V30 1 O 32.1936 -5.3942 22.6205 0
M  V30 2 C 32.9868 -4.8755 21.8387 0
M  V30 3 O 34.1886 -5.4448 21.5037 0
M  V30 4 C 32.8049 -3.4868 21.1296 0 CFG=1
M  V30 5 C 34.0743 -6.6473 20.7447 0
M  V30 6 C 31.9576 -2.538 22.0427 0
M  V30 7 C 34.1745 -2.7838 20.888 0
M  V30 8 C 32.0484 -3.8647 19.8003 0
M  V30 9 C 30.578 -2.307 21.7977 0
M  V30 10 C 32.5192 -1.9317 23.1837 0
M  V30 11 N 35.2501 -3.0936 21.703 0
M  V30 12 C 34.6412 -1.8044 19.9986 0
M  V30 13 C 32.7195 -4.8427 18.7863 0 CFG=2
M  V30 14 O 30.0042 -2.9231 20.7106 0
M  V30 15 C 29.8274 -1.4377 22.6077 0
M  V30 16 C 31.7413 -1.1237 24.0093 0
M  V30 17 C 36.3553 -2.3439 21.409 0
M  V30 18 C 36.0109 -1.5226 20.3453 0
M  V30 19 C 33.9396 -1.1397 18.8436 0
M  V30 20 C 33.9208 -4.2219 18.0729 0
M  V30 21 C 31.7287 -5.2965 17.6747 0
M  V30 22 C 28.6739 -2.4849 20.4292 0
M  V30 23 C 30.4131 -0.8576 23.7165 0
M  V30 24 C 32.1529 -0.3747 25.2518 0 CFG=1
M  V30 25 C 37.6254 -2.3428 21.9973 0
M  V30 26 C 36.9935 -0.6466 19.8346 0
M  V30 27 C 34.1667 -1.8358 17.4746 0
M  V30 28 N 33.382 -3.0489 17.4058 0
M  V30 29 C 31.3931 -4.2342 16.5794 0 CFG=1
M  V30 30 N 29.8314 -0.001 24.6343 0
M  V30 31 C 30.7847 0.2343 25.7419 0 CFG=1
M  V30 32 C 32.9363 -1.2008 26.2918 0 CFG=1
M  V30 33 C 33.1523 0.743 24.9093 0
M  V30 34 C 38.5786 -1.4634 21.4774 0
M  V30 35 C 38.2695 -0.6252 20.4102 0
M  V30 36 C 32.6617 -3.3997 16.1958 0
M  V30 37 O 30.9816 -4.9532 15.4011 0
M  V30 38 C 30.2361 -3.2662 16.9421 0
M  V30 39 C 28.809 0.9418 24.2362 0
M  V30 40 C 30.2891 -0.3585 27.0894 0 CFG=1
M  V30 41 N 33.865 -0.2359 26.9128 0
M  V30 42 C 32.1086 -2.225 27.1689 0 CFG=2
M  V30 43 C 33.7724 1.0615 26.2575 0
M  V30 44 C 30.6495 -1.8503 17.3247 0
M  V30 45 O 30.9738 0.3236 28.1725 0
M  V30 46 C 28.79 -0.0403 27.2785 0
M  V30 47 C 30.5676 -1.8789 27.1785 0 CFG=1
M  V30 48 C 34.0055 -0.1779 28.3511 0
M  V30 49 C 32.6896 -2.292 28.5804 0
M  V30 50 C 32.3472 -3.6443 26.5254 0
M  V30 51 O 27.8386 -0.5849 26.7396 0
M  V30 52 O 28.6586 0.9962 28.1782 0
M  V30 53 O 29.9707 -2.3944 28.4095 0
M  V30 54 C 33.5398 -1.3889 29.0827 0
M  V30 55 C 33.4304 -3.8008 25.4658 0
M  V30 56 C 27.4941 1.7976 27.9658 0
M  V30 57 C 28.936 -3.2727 28.3178 0
M  V30 58 O 28.4017 -3.8591 29.2459 0
M  V30 59 C 28.5177 -3.4071 26.8859 0
M  V30 END ATOM
M  V30 BEGIN BOND
M  V30 1 2 1 2
M  V30 2 1 2 3
M  V30 3 1 2 4
M  V30 4 1 3 5
M  V30 5 1 4 6
M  V30 6 1 4 7
M  V30 7 1 4 8
M  V30 8 2 6 9
M  V30 9 1 6 10
M  V30 10 1 7 11
M  V30 11 2 7 12
M  V30 12 1 8 13
M  V30 13 1 9 14
M  V30 14 1 9 15
M  V30 15 2 10 16
M  V30 16 1 11 17
M  V30 17 1 12 18
M  V30 18 1 12 19
M  V30 19 1 13 20
M  V30 20 1 13 21
M  V30 21 1 14 22
M  V30 22 2 15 23
M  V30 23 1 16 24
M  V30 24 1 17 25
M  V30 25 1 18 26
M  V30 26 1 19 27
M  V30 27 1 20 28
M  V30 28 1 21 29
M  V30 29 1 23 30
M  V30 30 1 24 31
M  V30 31 1 24 32
M  V30 32 1 24 33
M  V30 33 2 25 34
M  V30 34 2 26 35
M  V30 35 1 28 36
M  V30 36 1 29 37
M  V30 37 1 29 38
M  V30 38 1 30 39
M  V30 39 1 31 40
M  V30 40 1 32 41
M  V30 41 1 32 42
M  V30 42 1 33 43
M  V30 43 1 38 44
M  V30 44 1 40 45
M  V30 45 1 40 46
M  V30 46 1 40 47
M  V30 47 1 41 48
M  V30 48 1 42 49
M  V30 49 1 42 50
M  V30 50 2 46 51
M  V30 51 1 46 52
M  V30 52 1 47 53
M  V30 53 1 48 54
M  V30 54 1 50 55
M  V30 55 1 52 56
M  V30 56 1 53 57
M  V30 57 2 57 58
M  V30 58 1 57 59
M  V30 59 1 16 23
M  V30 60 2 17 18
M  V30 61 1 27 28
M  V30 62 1 29 36
M  V30 63 1 30 31
M  V30 64 1 34 35
M  V30 65 1 41 43
M  V30 66 1 42 47
M  V30 67 2 49 54
M  V30 END BOND
M  V30 BEGIN COLLECTION
M  V30 MDLV30/STEABS ATOMS=(9 4 13 24 29 31 32 40 42 47)
M  V30 END COLLECTION
M  V30 END CTAB
M  END
>  <Molecule Name>
ZINC000085555528

>  <minimizedAffinity>
11.78801

$$$$
ZINC000085432549
Actelion Java MolfileCreator 2.0

  0  0  0  0  0  0              0 V3000
M  V30 BEGIN CTAB
M  V30 COUNTS 60 68 0 0 0
M  V30 BEGIN ATOM
M  V30 1 O 32.1004 -5.3786 22.555 0
M  V30 2 C 32.9125 -4.8355 21.8104 0
M  V30 3 O 34.1329 -5.382 21.5055 0
M  V30 4 C 32.7343 -3.4374 21.117 0 CFG=1
M  V30 5 C 34.0614 -6.5647 20.7108 0
M  V30 6 C 31.8902 -2.4937 22.0436 0
M  V30 7 C 34.1067 -2.7382 20.8827 0
M  V30 8 C 31.9713 -3.8008 19.7865 0
M  V30 9 C 30.5336 -2.1799 21.7458 0
M  V30 10 C 32.4347 -1.9718 23.2379 0
M  V30 11 N 35.1694 -3.0411 21.7177 0
M  V30 12 C 34.5921 -1.7743 19.9859 0
M  V30 13 C 32.627 -4.8009 18.7807 0 CFG=2
M  V30 14 O 29.9765 -2.7377 20.62 0
M  V30 15 C 29.797 -1.2877 22.5396 0
M  V30 16 C 31.6746 -1.1407 24.0527 0
M  V30 17 C 36.2826 -2.3011 21.4292 0
M  V30 18 C 35.9584 -1.495 20.348 0
M  V30 19 C 33.9141 -1.1192 18.8111 0
M  V30 20 C 33.8435 -4.2064 18.0749 0
M  V30 21 C 31.637 -5.2506 17.6663 0
M  V30 22 C 28.5927 -2.4338 20.4371 0
M  V30 23 C 30.3892 -0.7772 23.6764 0
M  V30 24 C 32.0646 -0.4559 25.3456 0 CFG=1
M  V30 25 C 37.5438 -2.2983 22.036 0
M  V30 26 C 36.954 -0.6332 19.8381 0
M  V30 27 C 34.1428 -1.8385 17.4555 0
M  V30 28 N 33.3229 -3.0289 17.3985 0
M  V30 29 C 31.3491 -4.2112 16.5306 0 CFG=1
M  V30 30 N 29.8606 0.1157 24.6101 0
M  V30 31 C 30.6844 0.0899 25.8427 0 CFG=1
M  V30 32 C 32.8628 -1.2814 26.3669 0 CFG=1
M  V30 33 C 33.037 0.6984 25.0477 0
M  V30 34 C 38.5097 -1.4328 21.5164 0
M  V30 35 C 38.2213 -0.6099 20.4318 0
M  V30 36 C 32.6281 -3.386 16.1751 0
M  V30 37 O 30.9752 -4.9689 15.3658 0
M  V30 38 C 30.1443 -3.3087 16.905 0
M  V30 39 C 28.8294 0.9967 24.402 0
M  V30 40 C 30.0695 -0.7218 27.0229 0 CFG=1
M  V30 41 N 33.7041 -0.2969 27.0781 0
M  V30 42 C 32.0779 -2.3971 27.1638 0 CFG=2
M  V30 43 C 33.6313 1.0022 26.4102 0
M  V30 44 C 30.5084 -1.8746 17.2828 0
M  V30 45 O 28.4554 1.8347 25.2155 0
M  V30 46 O 30.5246 -0.0813 28.2363 0
M  V30 47 C 28.519 -0.6987 26.9887 0
M  V30 48 C 30.5198 -2.206 27.0394 0 CFG=1
M  V30 49 C 33.6282 -0.1973 28.5222 0
M  V30 50 C 32.5327 -2.436 28.6221 0
M  V30 51 C 32.5051 -3.7765 26.5336 0
M  V30 52 O 27.8202 -1.2183 26.1272 0
M  V30 53 O 28.0183 -0.083 28.1042 0
M  V30 54 O 29.88 -2.8583 28.1856 0
M  V30 55 C 33.2334 -1.4586 29.2081 0
M  V30 56 C 33.5432 -3.7824 25.4181 0
M  V30 57 C 26.7223 -0.5443 28.486 0
M  V30 58 C 28.7509 -3.5874 27.9748 0
M  V30 59 O 28.2705 -3.8561 26.8861 0
M  V30 60 C 28.1746 -4.022 29.2866 0
M  V30 END ATOM
M  V30 BEGIN BOND
M  V30 1 2 1 2
M  V30 2 1 2 3
M  V30 3 1 2 4
M  V30 4 1 3 5
M  V30 5 1 4 6
M  V30 6 1 4 7
M  V30 7 1 4 8
M  V30 8 2 6 9
M  V30 9 1 6 10
M  V30 10 1 7 11
M  V30 11 2 7 12
M  V30 12 1 8 13
M  V30 13 1 9 14
M  V30 14 1 9 15
M  V30 15 2 10 16
M  V30 16 1 11 17
M  V30 17 1 12 18
M  V30 18 1 12 19
M  V30 19 1 13 20
M  V30 20 1 13 21
M  V30 21 1 14 22
M  V30 22 2 15 23
M  V30 23 1 16 24
M  V30 24 1 17 25
M  V30 25 1 18 26
M  V30 26 1 19 27
M  V30 27 1 20 28
M  V30 28 1 21 29
M  V30 29 1 23 30
M  V30 30 1 24 31
M  V30 31 1 24 32
M  V30 32 1 24 33
M  V30 33 2 25 34
M  V30 34 2 26 35
M  V30 35 1 28 36
M  V30 36 1 29 37
M  V30 37 1 29 38
M  V30 38 1 30 39
M  V30 39 1 31 40
M  V30 40 1 32 41
M  V30 41 1 32 42
M  V30 42 1 33 43
M  V30 43 1 38 44
M  V30 44 2 39 45
M  V30 45 1 40 46
M  V30 46 1 40 47
M  V30 47 1 40 48
M  V30 48 1 41 49
M  V30 49 1 42 50
M  V30 50 1 42 51
M  V30 51 2 47 52
M  V30 52 1 47 53
M  V30 53 1 48 54
M  V30 54 1 49 55
M  V30 55 1 51 56
M  V30 56 1 53 57
M  V30 57 1 54 58
M  V30 58 2 58 59
M  V30 59 1 58 60
M  V30 60 1 16 23
M  V30 61 2 17 18
M  V30 62 1 27 28
M  V30 63 1 29 36
M  V30 64 1 30 31
M  V30 65 1 34 35
M  V30 66 1 41 43
M  V30 67 1 42 48
M  V30 68 2 50 55
M  V30 END BOND
M  V30 BEGIN COLLECTION
M  V30 MDLV30/STEABS ATOMS=(9 4 13 24 29 31 32 40 42 48)
M  V30 END COLLECTION
M  V30 END CTAB
M  END
>  <Molecule Name>
ZINC000085432549

>  <minimizedAffinity>
12.41731

$$$$
